/*---------------------------------------------------------------------------*\
| =========                 |                                                 |
| \\      /  F ield         | OpenFOAM: The Open Source CFD Toolbox           |
|  \\    /   O peration     | Version:  2.1.x                                 |
|   \\  /    A nd           | Web:      www.OpenFOAM.org                      |
|    \\/     M anipulation  |                                                 |
\*---------------------------------------------------------------------------*/
Build  : 2.1.x-ccbaf836072a
Exec   : commentedSimpleDyMFoam
Date   : Nov 25 2014
Time   : 15:55:43
Host   : "waren.fms.uni-rostock.de"
PID    : 22800
Case   : /home/cluster/agross/OpenFOAM/agross-2.1.x/bellerophon/tutorials/testcases/cavity/single
nProcs : 1
sigFpe : Enabling floating point exception trapping (FOAM_SIGFPE).
fileModificationChecking : Monitoring run-time modified files using timeStampMaster
allowSystemOperations : Disallowing user-supplied system call operations

// * * * * * * * * * * * * * * * * * * * * * * * * * * * * * * * * * * * * * //
Create time

Create mesh for time = 0

Selecting dynamicFvMesh staticFvMesh
Reading field p
Reading field U
Selecting incompressible transport model Newtonian
Creating turbulence
Selecting RAS turbulence model laminar
No field sources present


SIMPLE: no convergence criteria found. Calculations will run for 200 steps.

Time = 1

min(V) [0 3 0 0 0 0 0] 1.11111e-07
DILUPBiCG:  Solving for Ux, Initial residual = 1, Final residual = 2.31337e-06, No Iterations 5
DILUPBiCG:  Solving for Uy, Initial residual = 0.994972, Final residual = 9.55272e-07, No Iterations 5
adjusting mass flow for patch 2: frontAndBack
DICPCG:  Solving for p, Initial residual = 1, Final residual = 0.000865706, No Iterations 41
time step continuity errors : sum local = 0.000409843, global = 5.60663e-17, cumulative = 5.60663e-17
ExecutionTime = 0.21 s  ClockTime = 0 s

Time = 2

min(V) [0 3 0 0 0 0 0] 1.11111e-07
DILUPBiCG:  Solving for Ux, Initial residual = 0.190291, Final residual = 3.02831e-07, No Iterations 5
DILUPBiCG:  Solving for Uy, Initial residual = 0.562719, Final residual = 4.85073e-07, No Iterations 5
adjusting mass flow for patch 2: frontAndBack
DICPCG:  Solving for p, Initial residual = 0.577971, Final residual = 0.000309238, No Iterations 41
time step continuity errors : sum local = 0.000207423, global = -9.85688e-17, cumulative = -4.25025e-17
ExecutionTime = 0.35 s  ClockTime = 0 s

Time = 3

min(V) [0 3 0 0 0 0 0] 1.11111e-07
DILUPBiCG:  Solving for Ux, Initial residual = 0.135347, Final residual = 1.02881e-07, No Iterations 5
DILUPBiCG:  Solving for Uy, Initial residual = 0.294394, Final residual = 2.38272e-07, No Iterations 5
adjusting mass flow for patch 2: frontAndBack
DICPCG:  Solving for p, Initial residual = 0.535872, Final residual = 0.000528609, No Iterations 39
time step continuity errors : sum local = 0.000485907, global = -2.47989e-17, cumulative = -6.73014e-17
ExecutionTime = 0.53 s  ClockTime = 0 s

Time = 4

min(V) [0 3 0 0 0 0 0] 1.11111e-07
DILUPBiCG:  Solving for Ux, Initial residual = 0.0727914, Final residual = 7.13707e-08, No Iterations 5
DILUPBiCG:  Solving for Uy, Initial residual = 0.122716, Final residual = 1.13057e-07, No Iterations 5
adjusting mass flow for patch 2: frontAndBack
DICPCG:  Solving for p, Initial residual = 0.426285, Final residual = 0.000292008, No Iterations 40
time step continuity errors : sum local = 0.000308176, global = 5.25253e-18, cumulative = -6.20489e-17
ExecutionTime = 0.69 s  ClockTime = 1 s

Time = 5

min(V) [0 3 0 0 0 0 0] 1.11111e-07
DILUPBiCG:  Solving for Ux, Initial residual = 0.0396864, Final residual = 5.27129e-08, No Iterations 5
DILUPBiCG:  Solving for Uy, Initial residual = 0.0352671, Final residual = 4.37982e-08, No Iterations 5
adjusting mass flow for patch 2: frontAndBack
DICPCG:  Solving for p, Initial residual = 0.267179, Final residual = 0.000170973, No Iterations 40
time step continuity errors : sum local = 0.000171774, global = -6.61331e-17, cumulative = -1.28182e-16
ExecutionTime = 0.9 s  ClockTime = 1 s

Time = 6

min(V) [0 3 0 0 0 0 0] 1.11111e-07
DILUPBiCG:  Solving for Ux, Initial residual = 0.0474974, Final residual = 5.61712e-08, No Iterations 5
DILUPBiCG:  Solving for Uy, Initial residual = 0.0249583, Final residual = 3.24933e-08, No Iterations 5
adjusting mass flow for patch 2: frontAndBack
DICPCG:  Solving for p, Initial residual = 0.272103, Final residual = 0.000197564, No Iterations 39
time step continuity errors : sum local = 0.000184599, global = -4.90808e-17, cumulative = -1.77263e-16
ExecutionTime = 1.06 s  ClockTime = 2 s

Time = 7

min(V) [0 3 0 0 0 0 0] 1.11111e-07
DILUPBiCG:  Solving for Ux, Initial residual = 0.0267544, Final residual = 3.00361e-08, No Iterations 5
DILUPBiCG:  Solving for Uy, Initial residual = 0.0186114, Final residual = 1.92745e-08, No Iterations 5
adjusting mass flow for patch 2: frontAndBack
DICPCG:  Solving for p, Initial residual = 0.216821, Final residual = 0.000110041, No Iterations 40
time step continuity errors : sum local = 9.43767e-05, global = -3.76698e-17, cumulative = -2.14933e-16
ExecutionTime = 1.24 s  ClockTime = 2 s

Time = 8

min(V) [0 3 0 0 0 0 0] 1.11111e-07
DILUPBiCG:  Solving for Ux, Initial residual = 0.0293849, Final residual = 2.14407e-08, No Iterations 5
DILUPBiCG:  Solving for Uy, Initial residual = 0.0486193, Final residual = 3.46488e-07, No Iterations 4
adjusting mass flow for patch 2: frontAndBack
DICPCG:  Solving for p, Initial residual = 0.143486, Final residual = 6.29512e-05, No Iterations 40
time step continuity errors : sum local = 5.32996e-05, global = 1.05958e-16, cumulative = -1.08975e-16
ExecutionTime = 1.38 s  ClockTime = 2 s

Time = 9

min(V) [0 3 0 0 0 0 0] 1.11111e-07
DILUPBiCG:  Solving for Ux, Initial residual = 0.0249891, Final residual = 2.20714e-07, No Iterations 4
DILUPBiCG:  Solving for Uy, Initial residual = 0.0488326, Final residual = 2.99232e-07, No Iterations 4
adjusting mass flow for patch 2: frontAndBack
DICPCG:  Solving for p, Initial residual = 0.14868, Final residual = 0.000114943, No Iterations 39
time step continuity errors : sum local = 0.000104703, global = -5.74953e-17, cumulative = -1.6647e-16
ExecutionTime = 1.6 s  ClockTime = 2 s

Time = 10

min(V) [0 3 0 0 0 0 0] 1.11111e-07
DILUPBiCG:  Solving for Ux, Initial residual = 0.0154024, Final residual = 1.06489e-08, No Iterations 5
DILUPBiCG:  Solving for Uy, Initial residual = 0.0287472, Final residual = 2.2875e-07, No Iterations 4
adjusting mass flow for patch 2: frontAndBack
DICPCG:  Solving for p, Initial residual = 0.111506, Final residual = 0.000102905, No Iterations 39
time step continuity errors : sum local = 9.50859e-05, global = 1.02099e-16, cumulative = -6.43712e-17
ExecutionTime = 1.77 s  ClockTime = 3 s

Time = 11

min(V) [0 3 0 0 0 0 0] 1.11111e-07
DILUPBiCG:  Solving for Ux, Initial residual = 0.0144279, Final residual = 1.04881e-08, No Iterations 5
DILUPBiCG:  Solving for Uy, Initial residual = 0.0146016, Final residual = 1.03786e-08, No Iterations 5
adjusting mass flow for patch 2: frontAndBack
DICPCG:  Solving for p, Initial residual = 0.0739777, Final residual = 7.33643e-05, No Iterations 38
time step continuity errors : sum local = 6.63038e-05, global = -2.87978e-17, cumulative = -9.3169e-17
ExecutionTime = 1.91 s  ClockTime = 3 s

Time = 12

min(V) [0 3 0 0 0 0 0] 1.11111e-07
DILUPBiCG:  Solving for Ux, Initial residual = 0.0134053, Final residual = 1.29848e-08, No Iterations 5
DILUPBiCG:  Solving for Uy, Initial residual = 0.0102053, Final residual = 7.11333e-09, No Iterations 5
adjusting mass flow for patch 2: frontAndBack
DICPCG:  Solving for p, Initial residual = 0.0804198, Final residual = 6.19875e-05, No Iterations 39
time step continuity errors : sum local = 5.49508e-05, global = 1.02047e-16, cumulative = 8.8782e-18
ExecutionTime = 2.05 s  ClockTime = 3 s

Time = 13

min(V) [0 3 0 0 0 0 0] 1.11111e-07
DILUPBiCG:  Solving for Ux, Initial residual = 0.0127376, Final residual = 4.33716e-08, No Iterations 5
DILUPBiCG:  Solving for Uy, Initial residual = 0.013918, Final residual = 8.72206e-08, No Iterations 4
adjusting mass flow for patch 2: frontAndBack
DICPCG:  Solving for p, Initial residual = 0.0519378, Final residual = 4.03417e-05, No Iterations 39
time step continuity errors : sum local = 3.48389e-05, global = 1.42186e-16, cumulative = 1.51064e-16
ExecutionTime = 2.18 s  ClockTime = 4 s

Time = 14

min(V) [0 3 0 0 0 0 0] 1.11111e-07
DILUPBiCG:  Solving for Ux, Initial residual = 0.0122534, Final residual = 3.62147e-08, No Iterations 5
DILUPBiCG:  Solving for Uy, Initial residual = 0.0188525, Final residual = 9.37256e-08, No Iterations 4
adjusting mass flow for patch 2: frontAndBack
DICPCG:  Solving for p, Initial residual = 0.0419164, Final residual = 3.84455e-05, No Iterations 38
time step continuity errors : sum local = 3.35386e-05, global = -2.00523e-16, cumulative = -4.94587e-17
ExecutionTime = 2.31 s  ClockTime = 4 s

Time = 15

min(V) [0 3 0 0 0 0 0] 1.11111e-07
DILUPBiCG:  Solving for Ux, Initial residual = 0.00981515, Final residual = 6.98752e-08, No Iterations 4
DILUPBiCG:  Solving for Uy, Initial residual = 0.0173902, Final residual = 1.61305e-07, No Iterations 4
adjusting mass flow for patch 2: frontAndBack
DICPCG:  Solving for p, Initial residual = 0.0481527, Final residual = 4.37801e-05, No Iterations 38
time step continuity errors : sum local = 3.92311e-05, global = 9.04005e-17, cumulative = 4.09418e-17
ExecutionTime = 2.46 s  ClockTime = 4 s

Time = 16

min(V) [0 3 0 0 0 0 0] 1.11111e-07
DILUPBiCG:  Solving for Ux, Initial residual = 0.00799831, Final residual = 9.47078e-09, No Iterations 5
DILUPBiCG:  Solving for Uy, Initial residual = 0.0127571, Final residual = 7.15264e-08, No Iterations 4
adjusting mass flow for patch 2: frontAndBack
DICPCG:  Solving for p, Initial residual = 0.0300265, Final residual = 1.6091e-05, No Iterations 39
time step continuity errors : sum local = 1.42838e-05, global = -1.40848e-16, cumulative = -9.99064e-17
ExecutionTime = 2.57 s  ClockTime = 4 s

Time = 17

min(V) [0 3 0 0 0 0 0] 1.11111e-07
DILUPBiCG:  Solving for Ux, Initial residual = 0.00776956, Final residual = 8.38362e-09, No Iterations 5
DILUPBiCG:  Solving for Uy, Initial residual = 0.00939176, Final residual = 5.69988e-08, No Iterations 4
adjusting mass flow for patch 2: frontAndBack
DICPCG:  Solving for p, Initial residual = 0.0247846, Final residual = 1.73066e-05, No Iterations 39
time step continuity errors : sum local = 1.52632e-05, global = 1.43805e-17, cumulative = -8.55259e-17
ExecutionTime = 2.76 s  ClockTime = 5 s

Time = 18

min(V) [0 3 0 0 0 0 0] 1.11111e-07
DILUPBiCG:  Solving for Ux, Initial residual = 0.00745301, Final residual = 7.20698e-08, No Iterations 4
DILUPBiCG:  Solving for Uy, Initial residual = 0.00841547, Final residual = 4.62367e-08, No Iterations 4
adjusting mass flow for patch 2: frontAndBack
DICPCG:  Solving for p, Initial residual = 0.0244572, Final residual = 1.58522e-05, No Iterations 39
time step continuity errors : sum local = 1.39489e-05, global = 7.60985e-17, cumulative = -9.42731e-18
ExecutionTime = 2.94 s  ClockTime = 5 s

Time = 19

min(V) [0 3 0 0 0 0 0] 1.11111e-07
DILUPBiCG:  Solving for Ux, Initial residual = 0.00731789, Final residual = 6.08668e-08, No Iterations 4
DILUPBiCG:  Solving for Uy, Initial residual = 0.00956787, Final residual = 2.71899e-09, No Iterations 5
adjusting mass flow for patch 2: frontAndBack
DICPCG:  Solving for p, Initial residual = 0.0142384, Final residual = 1.22785e-05, No Iterations 39
time step continuity errors : sum local = 1.0804e-05, global = -5.21207e-17, cumulative = -6.1548e-17
ExecutionTime = 3.11 s  ClockTime = 5 s

Time = 20

min(V) [0 3 0 0 0 0 0] 1.11111e-07
DILUPBiCG:  Solving for Ux, Initial residual = 0.00666, Final residual = 3.27683e-09, No Iterations 5
DILUPBiCG:  Solving for Uy, Initial residual = 0.0100514, Final residual = 7.95685e-08, No Iterations 4
adjusting mass flow for patch 2: frontAndBack
DICPCG:  Solving for p, Initial residual = 0.0161394, Final residual = 1.2988e-05, No Iterations 38
time step continuity errors : sum local = 1.14383e-05, global = -1.20768e-18, cumulative = -6.27556e-17
ExecutionTime = 3.27 s  ClockTime = 5 s

Time = 21

min(V) [0 3 0 0 0 0 0] 1.11111e-07
DILUPBiCG:  Solving for Ux, Initial residual = 0.00574818, Final residual = 5.66762e-08, No Iterations 4
DILUPBiCG:  Solving for Uy, Initial residual = 0.00914726, Final residual = 8.27256e-09, No Iterations 5
adjusting mass flow for patch 2: frontAndBack
DICPCG:  Solving for p, Initial residual = 0.0151877, Final residual = 1.00182e-05, No Iterations 38
time step continuity errors : sum local = 8.88701e-06, global = -3.66193e-17, cumulative = -9.93749e-17
ExecutionTime = 3.43 s  ClockTime = 6 s

Time = 22

min(V) [0 3 0 0 0 0 0] 1.11111e-07
DILUPBiCG:  Solving for Ux, Initial residual = 0.00528255, Final residual = 5.10899e-08, No Iterations 4
DILUPBiCG:  Solving for Uy, Initial residual = 0.0077921, Final residual = 7.39003e-08, No Iterations 4
adjusting mass flow for patch 2: frontAndBack
DICPCG:  Solving for p, Initial residual = 0.00959711, Final residual = 7.43285e-06, No Iterations 39
time step continuity errors : sum local = 6.5694e-06, global = -1.40602e-16, cumulative = -2.39977e-16
ExecutionTime = 3.64 s  ClockTime = 6 s

Time = 23

min(V) [0 3 0 0 0 0 0] 1.11111e-07
DILUPBiCG:  Solving for Ux, Initial residual = 0.00508832, Final residual = 1.03048e-08, No Iterations 5
DILUPBiCG:  Solving for Uy, Initial residual = 0.00681197, Final residual = 4.29345e-08, No Iterations 4
adjusting mass flow for patch 2: frontAndBack
DICPCG:  Solving for p, Initial residual = 0.00980967, Final residual = 6.77968e-06, No Iterations 39
time step continuity errors : sum local = 5.99087e-06, global = 1.55177e-16, cumulative = -8.48e-17
ExecutionTime = 3.8 s  ClockTime = 6 s

Time = 24

min(V) [0 3 0 0 0 0 0] 1.11111e-07
DILUPBiCG:  Solving for Ux, Initial residual = 0.00494372, Final residual = 1.30667e-08, No Iterations 5
DILUPBiCG:  Solving for Uy, Initial residual = 0.00654082, Final residual = 2.85362e-08, No Iterations 4
adjusting mass flow for patch 2: frontAndBack
DICPCG:  Solving for p, Initial residual = 0.00759626, Final residual = 7.14448e-06, No Iterations 38
time step continuity errors : sum local = 6.32981e-06, global = -5.94577e-17, cumulative = -1.44258e-16
ExecutionTime = 3.96 s  ClockTime = 7 s

Time = 25

min(V) [0 3 0 0 0 0 0] 1.11111e-07
DILUPBiCG:  Solving for Ux, Initial residual = 0.00470973, Final residual = 5.73283e-09, No Iterations 5
DILUPBiCG:  Solving for Uy, Initial residual = 0.00660753, Final residual = 2.41579e-08, No Iterations 4
adjusting mass flow for patch 2: frontAndBack
DICPCG:  Solving for p, Initial residual = 0.00586239, Final residual = 5.29355e-06, No Iterations 39
time step continuity errors : sum local = 4.68348e-06, global = -1.00155e-16, cumulative = -2.44413e-16
ExecutionTime = 4.12 s  ClockTime = 7 s

Time = 26

min(V) [0 3 0 0 0 0 0] 1.11111e-07
DILUPBiCG:  Solving for Ux, Initial residual = 0.00432268, Final residual = 3.17734e-09, No Iterations 5
DILUPBiCG:  Solving for Uy, Initial residual = 0.0064249, Final residual = 2.27571e-08, No Iterations 4
adjusting mass flow for patch 2: frontAndBack
DICPCG:  Solving for p, Initial residual = 0.0068951, Final residual = 4.91394e-06, No Iterations 39
time step continuity errors : sum local = 4.35766e-06, global = -2.45342e-17, cumulative = -2.68947e-16
ExecutionTime = 4.28 s  ClockTime = 7 s

Time = 27

min(V) [0 3 0 0 0 0 0] 1.11111e-07
DILUPBiCG:  Solving for Ux, Initial residual = 0.0039647, Final residual = 2.67664e-09, No Iterations 5
DILUPBiCG:  Solving for Uy, Initial residual = 0.00596494, Final residual = 2.58083e-08, No Iterations 4
adjusting mass flow for patch 2: frontAndBack
DICPCG:  Solving for p, Initial residual = 0.00530506, Final residual = 5.15807e-06, No Iterations 38
time step continuity errors : sum local = 4.58504e-06, global = 3.87865e-17, cumulative = -2.3016e-16
ExecutionTime = 4.43 s  ClockTime = 8 s

Time = 28

min(V) [0 3 0 0 0 0 0] 1.11111e-07
DILUPBiCG:  Solving for Ux, Initial residual = 0.00375297, Final residual = 2.42124e-09, No Iterations 5
DILUPBiCG:  Solving for Uy, Initial residual = 0.00545008, Final residual = 3.25314e-08, No Iterations 4
adjusting mass flow for patch 2: frontAndBack
DICPCG:  Solving for p, Initial residual = 0.00428084, Final residual = 2.55483e-06, No Iterations 40
time step continuity errors : sum local = 2.26551e-06, global = 1.68894e-16, cumulative = -6.12667e-17
ExecutionTime = 4.61 s  ClockTime = 8 s

Time = 29

min(V) [0 3 0 0 0 0 0] 1.11111e-07
DILUPBiCG:  Solving for Ux, Initial residual = 0.00361117, Final residual = 2.26212e-09, No Iterations 5
DILUPBiCG:  Solving for Uy, Initial residual = 0.00507944, Final residual = 4.71996e-08, No Iterations 4
adjusting mass flow for patch 2: frontAndBack
DICPCG:  Solving for p, Initial residual = 0.00430724, Final residual = 2.41769e-06, No Iterations 40
time step continuity errors : sum local = 2.145e-06, global = 8.01993e-17, cumulative = 1.89326e-17
ExecutionTime = 4.76 s  ClockTime = 8 s

Time = 30

min(V) [0 3 0 0 0 0 0] 1.11111e-07
DILUPBiCG:  Solving for Ux, Initial residual = 0.0034711, Final residual = 2.16165e-09, No Iterations 5
DILUPBiCG:  Solving for Uy, Initial residual = 0.00489194, Final residual = 1.92984e-08, No Iterations 4
adjusting mass flow for patch 2: frontAndBack
DICPCG:  Solving for p, Initial residual = 0.00322451, Final residual = 2.78748e-06, No Iterations 28
time step continuity errors : sum local = 2.66168e-06, global = -1.41117e-17, cumulative = 4.82088e-18
ExecutionTime = 4.91 s  ClockTime = 8 s

Time = 31

min(V) [0 3 0 0 0 0 0] 1.11111e-07
DILUPBiCG:  Solving for Ux, Initial residual = 0.00328604, Final residual = 2.14673e-09, No Iterations 5
DILUPBiCG:  Solving for Uy, Initial residual = 0.00474957, Final residual = 1.58646e-08, No Iterations 4
adjusting mass flow for patch 2: frontAndBack
DICPCG:  Solving for p, Initial residual = 0.00324428, Final residual = 1.6567e-06, No Iterations 40
time step continuity errors : sum local = 1.47384e-06, global = -2.64781e-17, cumulative = -2.16572e-17
ExecutionTime = 5.07 s  ClockTime = 9 s

Time = 32

min(V) [0 3 0 0 0 0 0] 1.11111e-07
DILUPBiCG:  Solving for Ux, Initial residual = 0.00308102, Final residual = 2.24373e-09, No Iterations 5
DILUPBiCG:  Solving for Uy, Initial residual = 0.00454463, Final residual = 1.58942e-08, No Iterations 4
adjusting mass flow for patch 2: frontAndBack
DICPCG:  Solving for p, Initial residual = 0.00327665, Final residual = 2.19677e-06, No Iterations 38
time step continuity errors : sum local = 1.95448e-06, global = -1.36692e-16, cumulative = -1.58349e-16
ExecutionTime = 5.25 s  ClockTime = 9 s

Time = 33

min(V) [0 3 0 0 0 0 0] 1.11111e-07
DILUPBiCG:  Solving for Ux, Initial residual = 0.00290739, Final residual = 2.51656e-09, No Iterations 5
DILUPBiCG:  Solving for Uy, Initial residual = 0.00428708, Final residual = 1.80661e-08, No Iterations 4
adjusting mass flow for patch 2: frontAndBack
DICPCG:  Solving for p, Initial residual = 0.0026158, Final residual = 2.00532e-06, No Iterations 38
time step continuity errors : sum local = 1.79254e-06, global = -2.34789e-16, cumulative = -3.93138e-16
ExecutionTime = 5.41 s  ClockTime = 9 s

Time = 34

min(V) [0 3 0 0 0 0 0] 1.11111e-07
DILUPBiCG:  Solving for Ux, Initial residual = 0.00277439, Final residual = 3.04911e-09, No Iterations 5
DILUPBiCG:  Solving for Uy, Initial residual = 0.00403697, Final residual = 2.08635e-08, No Iterations 4
adjusting mass flow for patch 2: frontAndBack
DICPCG:  Solving for p, Initial residual = 0.00255059, Final residual = 1.52352e-06, No Iterations 40
time step continuity errors : sum local = 1.35589e-06, global = 8.23376e-17, cumulative = -3.108e-16
ExecutionTime = 5.55 s  ClockTime = 10 s

Time = 35

min(V) [0 3 0 0 0 0 0] 1.11111e-07
DILUPBiCG:  Solving for Ux, Initial residual = 0.00266194, Final residual = 3.99149e-09, No Iterations 5
DILUPBiCG:  Solving for Uy, Initial residual = 0.00383959, Final residual = 1.67454e-08, No Iterations 4
adjusting mass flow for patch 2: frontAndBack
DICPCG:  Solving for p, Initial residual = 0.00233655, Final residual = 1.79641e-06, No Iterations 38
time step continuity errors : sum local = 1.60623e-06, global = -8.6399e-18, cumulative = -3.1944e-16
ExecutionTime = 5.7 s  ClockTime = 10 s

Time = 36

min(V) [0 3 0 0 0 0 0] 1.11111e-07
DILUPBiCG:  Solving for Ux, Initial residual = 0.00254569, Final residual = 6.2046e-09, No Iterations 5
DILUPBiCG:  Solving for Uy, Initial residual = 0.00368779, Final residual = 1.34341e-08, No Iterations 4
adjusting mass flow for patch 2: frontAndBack
DICPCG:  Solving for p, Initial residual = 0.00202043, Final residual = 1.9815e-06, No Iterations 39
time step continuity errors : sum local = 1.77047e-06, global = -3.16686e-17, cumulative = -3.51109e-16
ExecutionTime = 5.85 s  ClockTime = 10 s

Time = 37

min(V) [0 3 0 0 0 0 0] 1.11111e-07
DILUPBiCG:  Solving for Ux, Initial residual = 0.00241814, Final residual = 2.36216e-08, No Iterations 5
DILUPBiCG:  Solving for Uy, Initial residual = 0.00354429, Final residual = 1.23604e-08, No Iterations 4
adjusting mass flow for patch 2: frontAndBack
DICPCG:  Solving for p, Initial residual = 0.00207447, Final residual = 1.49746e-06, No Iterations 38
time step continuity errors : sum local = 1.33544e-06, global = -6.45242e-17, cumulative = -4.15633e-16
ExecutionTime = 6.02 s  ClockTime = 10 s

Time = 38

min(V) [0 3 0 0 0 0 0] 1.11111e-07
DILUPBiCG:  Solving for Ux, Initial residual = 0.00229768, Final residual = 2.21976e-08, No Iterations 4
DILUPBiCG:  Solving for Uy, Initial residual = 0.00338873, Final residual = 1.22644e-08, No Iterations 4
adjusting mass flow for patch 2: frontAndBack
DICPCG:  Solving for p, Initial residual = 0.00193075, Final residual = 1.92222e-06, No Iterations 39
time step continuity errors : sum local = 1.7219e-06, global = 7.92356e-17, cumulative = -3.36397e-16
ExecutionTime = 6.17 s  ClockTime = 11 s

Time = 39

min(V) [0 3 0 0 0 0 0] 1.11111e-07
DILUPBiCG:  Solving for Ux, Initial residual = 0.00219316, Final residual = 1.97843e-08, No Iterations 4
DILUPBiCG:  Solving for Uy, Initial residual = 0.00322764, Final residual = 1.24491e-08, No Iterations 4
adjusting mass flow for patch 2: frontAndBack
DICPCG:  Solving for p, Initial residual = 0.00176155, Final residual = 1.26937e-06, No Iterations 38
time step continuity errors : sum local = 1.13754e-06, global = 2.49188e-17, cumulative = -3.11479e-16
ExecutionTime = 6.34 s  ClockTime = 11 s

Time = 40

min(V) [0 3 0 0 0 0 0] 1.11111e-07
DILUPBiCG:  Solving for Ux, Initial residual = 0.00210238, Final residual = 1.80181e-08, No Iterations 4
DILUPBiCG:  Solving for Uy, Initial residual = 0.00307752, Final residual = 1.20403e-08, No Iterations 4
adjusting mass flow for patch 2: frontAndBack
DICPCG:  Solving for p, Initial residual = 0.00170637, Final residual = 1.11083e-06, No Iterations 38
time step continuity errors : sum local = 9.93462e-07, global = 1.09804e-16, cumulative = -2.01674e-16
ExecutionTime = 6.53 s  ClockTime = 11 s

Time = 41

min(V) [0 3 0 0 0 0 0] 1.11111e-07
DILUPBiCG:  Solving for Ux, Initial residual = 0.00201701, Final residual = 1.6542e-08, No Iterations 4
DILUPBiCG:  Solving for Uy, Initial residual = 0.00294649, Final residual = 1.10129e-08, No Iterations 4
adjusting mass flow for patch 2: frontAndBack
DICPCG:  Solving for p, Initial residual = 0.00157926, Final residual = 1.48433e-06, No Iterations 39
time step continuity errors : sum local = 1.33268e-06, global = 1.89263e-16, cumulative = -1.24114e-17
ExecutionTime = 6.67 s  ClockTime = 12 s

Time = 42

min(V) [0 3 0 0 0 0 0] 1.11111e-07
DILUPBiCG:  Solving for Ux, Initial residual = 0.00193098, Final residual = 1.51809e-08, No Iterations 4
DILUPBiCG:  Solving for Uy, Initial residual = 0.00282899, Final residual = 1.01765e-08, No Iterations 4
adjusting mass flow for patch 2: frontAndBack
DICPCG:  Solving for p, Initial residual = 0.00150084, Final residual = 8.62386e-07, No Iterations 40
time step continuity errors : sum local = 7.72672e-07, global = 1.56155e-16, cumulative = 1.43744e-16
ExecutionTime = 6.82 s  ClockTime = 12 s

Time = 43

min(V) [0 3 0 0 0 0 0] 1.11111e-07
DILUPBiCG:  Solving for Ux, Initial residual = 0.00184509, Final residual = 1.39373e-08, No Iterations 4
DILUPBiCG:  Solving for Uy, Initial residual = 0.00271549, Final residual = 9.73567e-09, No Iterations 4
adjusting mass flow for patch 2: frontAndBack
DICPCG:  Solving for p, Initial residual = 0.00146024, Final residual = 1.42376e-06, No Iterations 39
time step continuity errors : sum local = 1.27718e-06, global = 3.13047e-17, cumulative = 1.75048e-16
ExecutionTime = 6.99 s  ClockTime = 12 s

Time = 44

min(V) [0 3 0 0 0 0 0] 1.11111e-07
DILUPBiCG:  Solving for Ux, Initial residual = 0.00176389, Final residual = 1.28728e-08, No Iterations 4
DILUPBiCG:  Solving for Uy, Initial residual = 0.0026023, Final residual = 9.51767e-09, No Iterations 4
adjusting mass flow for patch 2: frontAndBack
DICPCG:  Solving for p, Initial residual = 0.00138144, Final residual = 1.28516e-06, No Iterations 39
time step continuity errors : sum local = 1.1552e-06, global = 2.54317e-17, cumulative = 2.0048e-16
ExecutionTime = 7.16 s  ClockTime = 12 s

Time = 45

min(V) [0 3 0 0 0 0 0] 1.11111e-07
DILUPBiCG:  Solving for Ux, Initial residual = 0.0016898, Final residual = 1.19984e-08, No Iterations 4
DILUPBiCG:  Solving for Uy, Initial residual = 0.0024922, Final residual = 9.29168e-09, No Iterations 4
adjusting mass flow for patch 2: frontAndBack
DICPCG:  Solving for p, Initial residual = 0.00131296, Final residual = 1.17481e-06, No Iterations 38
time step continuity errors : sum local = 1.05929e-06, global = 7.25355e-17, cumulative = 2.73016e-16
ExecutionTime = 7.31 s  ClockTime = 13 s

Time = 46

min(V) [0 3 0 0 0 0 0] 1.11111e-07
DILUPBiCG:  Solving for Ux, Initial residual = 0.00162141, Final residual = 1.12498e-08, No Iterations 4
DILUPBiCG:  Solving for Uy, Initial residual = 0.00238916, Final residual = 8.93198e-09, No Iterations 4
adjusting mass flow for patch 2: frontAndBack
DICPCG:  Solving for p, Initial residual = 0.00125376, Final residual = 1.18652e-06, No Iterations 38
time step continuity errors : sum local = 1.07015e-06, global = 1.11318e-16, cumulative = 3.84333e-16
ExecutionTime = 7.47 s  ClockTime = 13 s

Time = 47

min(V) [0 3 0 0 0 0 0] 1.11111e-07
DILUPBiCG:  Solving for Ux, Initial residual = 0.00155583, Final residual = 1.05666e-08, No Iterations 4
DILUPBiCG:  Solving for Uy, Initial residual = 0.00229408, Final residual = 8.53124e-09, No Iterations 4
adjusting mass flow for patch 2: frontAndBack
DICPCG:  Solving for p, Initial residual = 0.00119476, Final residual = 1.12856e-06, No Iterations 39
time step continuity errors : sum local = 1.01487e-06, global = -2.07573e-16, cumulative = 1.76761e-16
ExecutionTime = 7.64 s  ClockTime = 13 s

Time = 48

min(V) [0 3 0 0 0 0 0] 1.11111e-07
DILUPBiCG:  Solving for Ux, Initial residual = 0.00149178, Final residual = 9.92112e-09, No Iterations 4
DILUPBiCG:  Solving for Uy, Initial residual = 0.00220463, Final residual = 8.20736e-09, No Iterations 4
adjusting mass flow for patch 2: frontAndBack
DICPCG:  Solving for p, Initial residual = 0.00114854, Final residual = 1.11156e-06, No Iterations 39
time step continuity errors : sum local = 9.99155e-07, global = -2.42732e-16, cumulative = -6.59713e-17
ExecutionTime = 7.8 s  ClockTime = 14 s

Time = 49

min(V) [0 3 0 0 0 0 0] 1.11111e-07
DILUPBiCG:  Solving for Ux, Initial residual = 0.00143053, Final residual = 9.32343e-09, No Iterations 4
DILUPBiCG:  Solving for Uy, Initial residual = 0.00211846, Final residual = 7.97408e-09, No Iterations 4
adjusting mass flow for patch 2: frontAndBack
DICPCG:  Solving for p, Initial residual = 0.00110367, Final residual = 1.04503e-06, No Iterations 39
time step continuity errors : sum local = 9.39936e-07, global = 1.35132e-16, cumulative = 6.91611e-17
ExecutionTime = 7.96 s  ClockTime = 14 s

Time = 50

min(V) [0 3 0 0 0 0 0] 1.11111e-07
DILUPBiCG:  Solving for Ux, Initial residual = 0.00137319, Final residual = 8.78699e-09, No Iterations 4
DILUPBiCG:  Solving for Uy, Initial residual = 0.00203496, Final residual = 7.78432e-09, No Iterations 4
adjusting mass flow for patch 2: frontAndBack
DICPCG:  Solving for p, Initial residual = 0.00105569, Final residual = 9.29119e-07, No Iterations 39
time step continuity errors : sum local = 8.36599e-07, global = -5.02512e-18, cumulative = 6.41359e-17
ExecutionTime = 8.14 s  ClockTime = 14 s

Time = 51

min(V) [0 3 0 0 0 0 0] 1.11111e-07
DILUPBiCG:  Solving for Ux, Initial residual = 0.00131958, Final residual = 8.3132e-09, No Iterations 4
DILUPBiCG:  Solving for Uy, Initial residual = 0.00195497, Final residual = 7.59099e-09, No Iterations 4
adjusting mass flow for patch 2: frontAndBack
DICPCG:  Solving for p, Initial residual = 0.00101124, Final residual = 1.00624e-06, No Iterations 38
time step continuity errors : sum local = 9.08252e-07, global = -3.24226e-16, cumulative = -2.6009e-16
ExecutionTime = 8.3 s  ClockTime = 14 s

Time = 52

min(V) [0 3 0 0 0 0 0] 1.11111e-07
DILUPBiCG:  Solving for Ux, Initial residual = 0.00126877, Final residual = 7.88937e-09, No Iterations 4
DILUPBiCG:  Solving for Uy, Initial residual = 0.00187928, Final residual = 7.38579e-09, No Iterations 4
adjusting mass flow for patch 2: frontAndBack
DICPCG:  Solving for p, Initial residual = 0.00096875, Final residual = 8.42945e-07, No Iterations 39
time step continuity errors : sum local = 7.59251e-07, global = -1.21682e-16, cumulative = -3.81772e-16
ExecutionTime = 8.45 s  ClockTime = 15 s

Time = 53

min(V) [0 3 0 0 0 0 0] 1.11111e-07
DILUPBiCG:  Solving for Ux, Initial residual = 0.00121986, Final residual = 7.498e-09, No Iterations 4
DILUPBiCG:  Solving for Uy, Initial residual = 0.0018077, Final residual = 7.1912e-09, No Iterations 4
adjusting mass flow for patch 2: frontAndBack
DICPCG:  Solving for p, Initial residual = 0.000929493, Final residual = 8.50879e-07, No Iterations 39
time step continuity errors : sum local = 7.66055e-07, global = -1.05573e-16, cumulative = -4.87345e-16
ExecutionTime = 8.61 s  ClockTime = 15 s

Time = 54

min(V) [0 3 0 0 0 0 0] 1.11111e-07
DILUPBiCG:  Solving for Ux, Initial residual = 0.00117261, Final residual = 7.1303e-09, No Iterations 4
DILUPBiCG:  Solving for Uy, Initial residual = 0.00173941, Final residual = 7.02419e-09, No Iterations 4
adjusting mass flow for patch 2: frontAndBack
DICPCG:  Solving for p, Initial residual = 0.000893272, Final residual = 9.87742e-07, No Iterations 38
time step continuity errors : sum local = 8.91007e-07, global = -1.00904e-16, cumulative = -5.88249e-16
ExecutionTime = 8.78 s  ClockTime = 15 s

Time = 55

min(V) [0 3 0 0 0 0 0] 1.11111e-07
DILUPBiCG:  Solving for Ux, Initial residual = 0.00112731, Final residual = 6.78433e-09, No Iterations 4
DILUPBiCG:  Solving for Uy, Initial residual = 0.0016738, Final residual = 6.88058e-09, No Iterations 4
adjusting mass flow for patch 2: frontAndBack
DICPCG:  Solving for p, Initial residual = 0.000857731, Final residual = 9.33734e-07, No Iterations 38
time step continuity errors : sum local = 8.42605e-07, global = 1.87526e-16, cumulative = -4.00723e-16
ExecutionTime = 8.94 s  ClockTime = 16 s

Time = 56

min(V) [0 3 0 0 0 0 0] 1.11111e-07
DILUPBiCG:  Solving for Ux, Initial residual = 0.00108419, Final residual = 6.46513e-09, No Iterations 4
DILUPBiCG:  Solving for Uy, Initial residual = 0.00161073, Final residual = 6.7516e-09, No Iterations 4
adjusting mass flow for patch 2: frontAndBack
DICPCG:  Solving for p, Initial residual = 0.000823148, Final residual = 8.72285e-07, No Iterations 38
time step continuity errors : sum local = 7.87415e-07, global = 3.24255e-18, cumulative = -3.9748e-16
ExecutionTime = 9.09 s  ClockTime = 16 s

Time = 57

min(V) [0 3 0 0 0 0 0] 1.11111e-07
DILUPBiCG:  Solving for Ux, Initial residual = 0.00104315, Final residual = 6.17308e-09, No Iterations 4
DILUPBiCG:  Solving for Uy, Initial residual = 0.00155039, Final residual = 6.63741e-09, No Iterations 4
adjusting mass flow for patch 2: frontAndBack
DICPCG:  Solving for p, Initial residual = 0.000790183, Final residual = 8.35522e-07, No Iterations 38
time step continuity errors : sum local = 7.54254e-07, global = 8.69408e-17, cumulative = -3.1054e-16
ExecutionTime = 9.31 s  ClockTime = 16 s

Time = 58

min(V) [0 3 0 0 0 0 0] 1.11111e-07
DILUPBiCG:  Solving for Ux, Initial residual = 0.00100384, Final residual = 5.90175e-09, No Iterations 4
DILUPBiCG:  Solving for Uy, Initial residual = 0.00149283, Final residual = 6.53957e-09, No Iterations 4
adjusting mass flow for patch 2: frontAndBack
DICPCG:  Solving for p, Initial residual = 0.000758889, Final residual = 8.22618e-07, No Iterations 38
time step continuity errors : sum local = 7.42468e-07, global = -5.29478e-17, cumulative = -3.63487e-16
ExecutionTime = 9.52 s  ClockTime = 17 s

Time = 59

min(V) [0 3 0 0 0 0 0] 1.11111e-07
DILUPBiCG:  Solving for Ux, Initial residual = 0.000966004, Final residual = 5.64418e-09, No Iterations 4
DILUPBiCG:  Solving for Uy, Initial residual = 0.00143784, Final residual = 6.46187e-09, No Iterations 4
adjusting mass flow for patch 2: frontAndBack
DICPCG:  Solving for p, Initial residual = 0.000729652, Final residual = 8.08665e-07, No Iterations 38
time step continuity errors : sum local = 7.29752e-07, global = -2.28881e-17, cumulative = -3.86376e-16
ExecutionTime = 9.68 s  ClockTime = 17 s

Time = 60

min(V) [0 3 0 0 0 0 0] 1.11111e-07
DILUPBiCG:  Solving for Ux, Initial residual = 0.000929617, Final residual = 5.39823e-09, No Iterations 4
DILUPBiCG:  Solving for Uy, Initial residual = 0.00138513, Final residual = 6.40559e-09, No Iterations 4
adjusting mass flow for patch 2: frontAndBack
DICPCG:  Solving for p, Initial residual = 0.00070174, Final residual = 7.83508e-07, No Iterations 38
time step continuity errors : sum local = 7.07066e-07, global = 1.08956e-16, cumulative = -2.77419e-16
ExecutionTime = 9.86 s  ClockTime = 17 s

Time = 61

min(V) [0 3 0 0 0 0 0] 1.11111e-07
DILUPBiCG:  Solving for Ux, Initial residual = 0.000894777, Final residual = 5.16525e-09, No Iterations 4
DILUPBiCG:  Solving for Uy, Initial residual = 0.00133448, Final residual = 6.37484e-09, No Iterations 4
adjusting mass flow for patch 2: frontAndBack
DICPCG:  Solving for p, Initial residual = 0.000674776, Final residual = 7.50794e-07, No Iterations 38
time step continuity errors : sum local = 6.77623e-07, global = -1.17211e-16, cumulative = -3.94631e-16
ExecutionTime = 10.01 s  ClockTime = 18 s

Time = 62

min(V) [0 3 0 0 0 0 0] 1.11111e-07
DILUPBiCG:  Solving for Ux, Initial residual = 0.000861497, Final residual = 4.94746e-09, No Iterations 4
DILUPBiCG:  Solving for Uy, Initial residual = 0.00128585, Final residual = 6.37774e-09, No Iterations 4
adjusting mass flow for patch 2: frontAndBack
DICPCG:  Solving for p, Initial residual = 0.000648906, Final residual = 7.2026e-07, No Iterations 38
time step continuity errors : sum local = 6.50087e-07, global = -4.46719e-17, cumulative = -4.39303e-16
ExecutionTime = 10.12 s  ClockTime = 18 s

Time = 63

min(V) [0 3 0 0 0 0 0] 1.11111e-07
DILUPBiCG:  Solving for Ux, Initial residual = 0.000829698, Final residual = 4.74337e-09, No Iterations 4
DILUPBiCG:  Solving for Uy, Initial residual = 0.00123922, Final residual = 6.41667e-09, No Iterations 4
adjusting mass flow for patch 2: frontAndBack
DICPCG:  Solving for p, Initial residual = 0.000624313, Final residual = 6.98593e-07, No Iterations 38
time step continuity errors : sum local = 6.30475e-07, global = 4.64379e-17, cumulative = -3.92865e-16
ExecutionTime = 10.24 s  ClockTime = 18 s

Time = 64

min(V) [0 3 0 0 0 0 0] 1.11111e-07
DILUPBiCG:  Solving for Ux, Initial residual = 0.000799248, Final residual = 4.55009e-09, No Iterations 4
DILUPBiCG:  Solving for Uy, Initial residual = 0.00119451, Final residual = 6.49709e-09, No Iterations 4
adjusting mass flow for patch 2: frontAndBack
DICPCG:  Solving for p, Initial residual = 0.000600938, Final residual = 6.8208e-07, No Iterations 38
time step continuity errors : sum local = 6.15485e-07, global = -1.07244e-16, cumulative = -5.00109e-16
ExecutionTime = 10.35 s  ClockTime = 18 s

Time = 65

min(V) [0 3 0 0 0 0 0] 1.11111e-07
DILUPBiCG:  Solving for Ux, Initial residual = 0.000770077, Final residual = 4.3658e-09, No Iterations 4
DILUPBiCG:  Solving for Uy, Initial residual = 0.00115162, Final residual = 6.62412e-09, No Iterations 4
adjusting mass flow for patch 2: frontAndBack
DICPCG:  Solving for p, Initial residual = 0.000578571, Final residual = 6.64186e-07, No Iterations 38
time step continuity errors : sum local = 5.99284e-07, global = 1.4036e-16, cumulative = -3.59749e-16
ExecutionTime = 10.47 s  ClockTime = 19 s

Time = 66

min(V) [0 3 0 0 0 0 0] 1.11111e-07
DILUPBiCG:  Solving for Ux, Initial residual = 0.00074214, Final residual = 4.18956e-09, No Iterations 4
DILUPBiCG:  Solving for Uy, Initial residual = 0.00111041, Final residual = 6.8104e-09, No Iterations 4
adjusting mass flow for patch 2: frontAndBack
DICPCG:  Solving for p, Initial residual = 0.000557061, Final residual = 6.4314e-07, No Iterations 38
time step continuity errors : sum local = 5.80286e-07, global = 3.43611e-17, cumulative = -3.25388e-16
ExecutionTime = 10.59 s  ClockTime = 19 s

Time = 67

min(V) [0 3 0 0 0 0 0] 1.11111e-07
DILUPBiCG:  Solving for Ux, Initial residual = 0.00071539, Final residual = 4.0221e-09, No Iterations 4
DILUPBiCG:  Solving for Uy, Initial residual = 0.0010708, Final residual = 7.07802e-09, No Iterations 4
adjusting mass flow for patch 2: frontAndBack
DICPCG:  Solving for p, Initial residual = 0.000536367, Final residual = 6.20956e-07, No Iterations 38
time step continuity errors : sum local = 5.6026e-07, global = -1.81496e-16, cumulative = -5.06883e-16
ExecutionTime = 10.71 s  ClockTime = 19 s

Time = 68

min(V) [0 3 0 0 0 0 0] 1.11111e-07
DILUPBiCG:  Solving for Ux, Initial residual = 0.000689745, Final residual = 3.86354e-09, No Iterations 4
DILUPBiCG:  Solving for Uy, Initial residual = 0.00103272, Final residual = 7.46505e-09, No Iterations 4
adjusting mass flow for patch 2: frontAndBack
DICPCG:  Solving for p, Initial residual = 0.000516488, Final residual = 6.00628e-07, No Iterations 38
time step continuity errors : sum local = 5.41879e-07, global = 7.85822e-19, cumulative = -5.06098e-16
ExecutionTime = 10.83 s  ClockTime = 19 s

Time = 69

min(V) [0 3 0 0 0 0 0] 1.11111e-07
DILUPBiCG:  Solving for Ux, Initial residual = 0.000665126, Final residual = 3.71293e-09, No Iterations 4
DILUPBiCG:  Solving for Uy, Initial residual = 0.000996126, Final residual = 8.01946e-09, No Iterations 4
adjusting mass flow for patch 2: frontAndBack
DICPCG:  Solving for p, Initial residual = 0.000497443, Final residual = 5.83054e-07, No Iterations 38
time step continuity errors : sum local = 5.25956e-07, global = -2.59735e-18, cumulative = -5.08695e-16
ExecutionTime = 10.95 s  ClockTime = 20 s

Time = 70

min(V) [0 3 0 0 0 0 0] 1.11111e-07
DILUPBiCG:  Solving for Ux, Initial residual = 0.000641458, Final residual = 3.56943e-09, No Iterations 4
DILUPBiCG:  Solving for Uy, Initial residual = 0.000960954, Final residual = 8.83456e-09, No Iterations 4
adjusting mass flow for patch 2: frontAndBack
DICPCG:  Solving for p, Initial residual = 0.000479204, Final residual = 5.66708e-07, No Iterations 38
time step continuity errors : sum local = 5.11143e-07, global = 1.51635e-16, cumulative = -3.5706e-16
ExecutionTime = 11.07 s  ClockTime = 20 s

Time = 71

min(V) [0 3 0 0 0 0 0] 1.11111e-07
DILUPBiCG:  Solving for Ux, Initial residual = 0.000618688, Final residual = 3.43207e-09, No Iterations 4
DILUPBiCG:  Solving for Uy, Initial residual = 0.000927131, Final residual = 3.08711e-10, No Iterations 5
adjusting mass flow for patch 2: frontAndBack
DICPCG:  Solving for p, Initial residual = 0.000461693, Final residual = 5.49996e-07, No Iterations 38
time step continuity errors : sum local = 4.96019e-07, global = 5.46808e-17, cumulative = -3.0238e-16
ExecutionTime = 11.19 s  ClockTime = 20 s

Time = 72

min(V) [0 3 0 0 0 0 0] 1.11111e-07
DILUPBiCG:  Solving for Ux, Initial residual = 0.000596786, Final residual = 3.30061e-09, No Iterations 4
DILUPBiCG:  Solving for Uy, Initial residual = 0.000894589, Final residual = 3.47907e-10, No Iterations 5
adjusting mass flow for patch 2: frontAndBack
DICPCG:  Solving for p, Initial residual = 0.000444868, Final residual = 5.33091e-07, No Iterations 38
time step continuity errors : sum local = 4.80737e-07, global = -2.35498e-17, cumulative = -3.25929e-16
ExecutionTime = 11.3 s  ClockTime = 20 s

Time = 73

min(V) [0 3 0 0 0 0 0] 1.11111e-07
DILUPBiCG:  Solving for Ux, Initial residual = 0.000575722, Final residual = 3.17518e-09, No Iterations 4
DILUPBiCG:  Solving for Uy, Initial residual = 0.000863269, Final residual = 4.11403e-10, No Iterations 5
adjusting mass flow for patch 2: frontAndBack
DICPCG:  Solving for p, Initial residual = 0.000428703, Final residual = 9.66385e-07, No Iterations 37
time step continuity errors : sum local = 8.71951e-07, global = -1.9196e-16, cumulative = -5.17889e-16
ExecutionTime = 11.43 s  ClockTime = 21 s

Time = 74

min(V) [0 3 0 0 0 0 0] 1.11111e-07
DILUPBiCG:  Solving for Ux, Initial residual = 0.000555451, Final residual = 3.05532e-09, No Iterations 4
DILUPBiCG:  Solving for Uy, Initial residual = 0.000833124, Final residual = 5.2497e-10, No Iterations 5
adjusting mass flow for patch 2: frontAndBack
DICPCG:  Solving for p, Initial residual = 0.000413192, Final residual = 9.35027e-07, No Iterations 37
time step continuity errors : sum local = 8.4358e-07, global = 1.89879e-17, cumulative = -4.98901e-16
ExecutionTime = 11.56 s  ClockTime = 21 s

Time = 75

min(V) [0 3 0 0 0 0 0] 1.11111e-07
DILUPBiCG:  Solving for Ux, Initial residual = 0.00053594, Final residual = 2.94073e-09, No Iterations 4
DILUPBiCG:  Solving for Uy, Initial residual = 0.000804107, Final residual = 7.72496e-10, No Iterations 5
adjusting mass flow for patch 2: frontAndBack
DICPCG:  Solving for p, Initial residual = 0.000398277, Final residual = 9.04067e-07, No Iterations 37
time step continuity errors : sum local = 8.15545e-07, global = 9.03116e-17, cumulative = -4.0859e-16
ExecutionTime = 11.68 s  ClockTime = 21 s

Time = 76

min(V) [0 3 0 0 0 0 0] 1.11111e-07
DILUPBiCG:  Solving for Ux, Initial residual = 0.000517144, Final residual = 2.83073e-09, No Iterations 4
DILUPBiCG:  Solving for Uy, Initial residual = 0.000776173, Final residual = 1.60283e-09, No Iterations 5
adjusting mass flow for patch 2: frontAndBack
DICPCG:  Solving for p, Initial residual = 0.000383946, Final residual = 8.7255e-07, No Iterations 37
time step continuity errors : sum local = 7.87018e-07, global = 9.8877e-17, cumulative = -3.09712e-16
ExecutionTime = 11.79 s  ClockTime = 21 s

Time = 77

min(V) [0 3 0 0 0 0 0] 1.11111e-07
DILUPBiCG:  Solving for Ux, Initial residual = 0.00049904, Final residual = 2.72503e-09, No Iterations 4
DILUPBiCG:  Solving for Uy, Initial residual = 0.000749272, Final residual = 7.25167e-10, No Iterations 6
adjusting mass flow for patch 2: frontAndBack
DICPCG:  Solving for p, Initial residual = 0.000370163, Final residual = 8.41501e-07, No Iterations 37
time step continuity errors : sum local = 7.58943e-07, global = -3.76326e-17, cumulative = -3.47345e-16
ExecutionTime = 11.9 s  ClockTime = 22 s

Time = 78

min(V) [0 3 0 0 0 0 0] 1.11111e-07
DILUPBiCG:  Solving for Ux, Initial residual = 0.0004816, Final residual = 2.62381e-09, No Iterations 4
DILUPBiCG:  Solving for Uy, Initial residual = 0.000723359, Final residual = 1.27514e-09, No Iterations 5
adjusting mass flow for patch 2: frontAndBack
DICPCG:  Solving for p, Initial residual = 0.000356959, Final residual = 8.11803e-07, No Iterations 37
time step continuity errors : sum local = 7.32092e-07, global = -5.58057e-17, cumulative = -4.03151e-16
ExecutionTime = 12.02 s  ClockTime = 22 s

Time = 79

min(V) [0 3 0 0 0 0 0] 1.11111e-07
DILUPBiCG:  Solving for Ux, Initial residual = 0.000464806, Final residual = 2.52681e-09, No Iterations 4
DILUPBiCG:  Solving for Uy, Initial residual = 0.000698394, Final residual = 8.93989e-09, No Iterations 4
adjusting mass flow for patch 2: frontAndBack
DICPCG:  Solving for p, Initial residual = 0.000344248, Final residual = 7.82009e-07, No Iterations 37
time step continuity errors : sum local = 7.05091e-07, global = -5.15954e-17, cumulative = -4.54746e-16
ExecutionTime = 12.13 s  ClockTime = 22 s

Time = 80

min(V) [0 3 0 0 0 0 0] 1.11111e-07
DILUPBiCG:  Solving for Ux, Initial residual = 0.000448628, Final residual = 2.43376e-09, No Iterations 4
DILUPBiCG:  Solving for Uy, Initial residual = 0.000674342, Final residual = 7.06403e-09, No Iterations 4
adjusting mass flow for patch 2: frontAndBack
DICPCG:  Solving for p, Initial residual = 0.000332029, Final residual = 9.79178e-07, No Iterations 36
time step continuity errors : sum local = 8.83398e-07, global = -1.50398e-16, cumulative = -6.05144e-16
ExecutionTime = 12.25 s  ClockTime = 22 s

Time = 81

min(V) [0 3 0 0 0 0 0] 1.11111e-07
DILUPBiCG:  Solving for Ux, Initial residual = 0.000433048, Final residual = 2.3445e-09, No Iterations 4
DILUPBiCG:  Solving for Uy, Initial residual = 0.000651162, Final residual = 5.88289e-09, No Iterations 4
adjusting mass flow for patch 2: frontAndBack
DICPCG:  Solving for p, Initial residual = 0.000320247, Final residual = 9.34079e-07, No Iterations 36
time step continuity errors : sum local = 8.42385e-07, global = 6.05e-17, cumulative = -5.44644e-16
ExecutionTime = 12.36 s  ClockTime = 23 s

Time = 82

min(V) [0 3 0 0 0 0 0] 1.11111e-07
DILUPBiCG:  Solving for Ux, Initial residual = 0.000418038, Final residual = 2.25848e-09, No Iterations 4
DILUPBiCG:  Solving for Uy, Initial residual = 0.000628822, Final residual = 5.07228e-09, No Iterations 4
adjusting mass flow for patch 2: frontAndBack
DICPCG:  Solving for p, Initial residual = 0.000308921, Final residual = 8.88863e-07, No Iterations 36
time step continuity errors : sum local = 8.01291e-07, global = 2.07167e-16, cumulative = -3.37477e-16
ExecutionTime = 12.5 s  ClockTime = 23 s

Time = 83

min(V) [0 3 0 0 0 0 0] 1.11111e-07
DILUPBiCG:  Solving for Ux, Initial residual = 0.000403579, Final residual = 2.17583e-09, No Iterations 4
DILUPBiCG:  Solving for Uy, Initial residual = 0.000607286, Final residual = 4.4784e-09, No Iterations 4
adjusting mass flow for patch 2: frontAndBack
DICPCG:  Solving for p, Initial residual = 0.000298031, Final residual = 8.44733e-07, No Iterations 36
time step continuity errors : sum local = 7.61231e-07, global = 5.18146e-17, cumulative = -2.85662e-16
ExecutionTime = 12.63 s  ClockTime = 23 s

Time = 84

min(V) [0 3 0 0 0 0 0] 1.11111e-07
DILUPBiCG:  Solving for Ux, Initial residual = 0.000389654, Final residual = 2.0964e-09, No Iterations 4
DILUPBiCG:  Solving for Uy, Initial residual = 0.000586523, Final residual = 4.02601e-09, No Iterations 4
adjusting mass flow for patch 2: frontAndBack
DICPCG:  Solving for p, Initial residual = 0.000287587, Final residual = 8.01593e-07, No Iterations 36
time step continuity errors : sum local = 7.22077e-07, global = -1.01094e-16, cumulative = -3.86756e-16
ExecutionTime = 12.74 s  ClockTime = 23 s

Time = 85

min(V) [0 3 0 0 0 0 0] 1.11111e-07
DILUPBiCG:  Solving for Ux, Initial residual = 0.000376243, Final residual = 2.0201e-09, No Iterations 4
DILUPBiCG:  Solving for Uy, Initial residual = 0.000566502, Final residual = 3.67007e-09, No Iterations 4
adjusting mass flow for patch 2: frontAndBack
DICPCG:  Solving for p, Initial residual = 0.000277526, Final residual = 7.57849e-07, No Iterations 36
time step continuity errors : sum local = 6.82342e-07, global = 1.20806e-16, cumulative = -2.6595e-16
ExecutionTime = 12.87 s  ClockTime = 24 s

Time = 86

min(V) [0 3 0 0 0 0 0] 1.11111e-07
DILUPBiCG:  Solving for Ux, Initial residual = 0.000363328, Final residual = 1.94674e-09, No Iterations 4
DILUPBiCG:  Solving for Uy, Initial residual = 0.000547195, Final residual = 3.37863e-09, No Iterations 4
adjusting mass flow for patch 2: frontAndBack
DICPCG:  Solving for p, Initial residual = 0.000267833, Final residual = 7.1229e-07, No Iterations 36
time step continuity errors : sum local = 6.40927e-07, global = 4.8328e-17, cumulative = -2.17622e-16
ExecutionTime = 12.99 s  ClockTime = 24 s

Time = 87

min(V) [0 3 0 0 0 0 0] 1.11111e-07
DILUPBiCG:  Solving for Ux, Initial residual = 0.000350889, Final residual = 1.87618e-09, No Iterations 4
DILUPBiCG:  Solving for Uy, Initial residual = 0.000528574, Final residual = 3.13606e-09, No Iterations 4
adjusting mass flow for patch 2: frontAndBack
DICPCG:  Solving for p, Initial residual = 0.000258498, Final residual = 6.65279e-07, No Iterations 36
time step continuity errors : sum local = 5.98201e-07, global = 1.5075e-16, cumulative = -6.68729e-17
ExecutionTime = 13.12 s  ClockTime = 24 s

Time = 88

min(V) [0 3 0 0 0 0 0] 1.11111e-07
DILUPBiCG:  Solving for Ux, Initial residual = 0.000338907, Final residual = 1.80833e-09, No Iterations 4
DILUPBiCG:  Solving for Uy, Initial residual = 0.000510612, Final residual = 2.93099e-09, No Iterations 4
adjusting mass flow for patch 2: frontAndBack
DICPCG:  Solving for p, Initial residual = 0.000249504, Final residual = 6.18923e-07, No Iterations 36
time step continuity errors : sum local = 5.56113e-07, global = 8.83925e-17, cumulative = 2.15196e-17
ExecutionTime = 13.23 s  ClockTime = 24 s

Time = 89

min(V) [0 3 0 0 0 0 0] 1.11111e-07
DILUPBiCG:  Solving for Ux, Initial residual = 0.000327363, Final residual = 1.74305e-09, No Iterations 4
DILUPBiCG:  Solving for Uy, Initial residual = 0.000493285, Final residual = 2.75532e-09, No Iterations 4
adjusting mass flow for patch 2: frontAndBack
DICPCG:  Solving for p, Initial residual = 0.000240839, Final residual = 9.84129e-07, No Iterations 35
time step continuity errors : sum local = 8.88001e-07, global = 2.05608e-16, cumulative = 2.27128e-16
ExecutionTime = 13.35 s  ClockTime = 25 s

Time = 90

min(V) [0 3 0 0 0 0 0] 1.11111e-07
DILUPBiCG:  Solving for Ux, Initial residual = 0.000316243, Final residual = 1.68006e-09, No Iterations 4
DILUPBiCG:  Solving for Uy, Initial residual = 0.000476565, Final residual = 2.60436e-09, No Iterations 4
adjusting mass flow for patch 2: frontAndBack
DICPCG:  Solving for p, Initial residual = 0.000232467, Final residual = 9.39047e-07, No Iterations 34
time step continuity errors : sum local = 8.55237e-07, global = -4.9453e-17, cumulative = 1.77675e-16
ExecutionTime = 13.47 s  ClockTime = 25 s

Time = 91

min(V) [0 3 0 0 0 0 0] 1.11111e-07
DILUPBiCG:  Solving for Ux, Initial residual = 0.000305524, Final residual = 1.62e-09, No Iterations 4
DILUPBiCG:  Solving for Uy, Initial residual = 0.000460431, Final residual = 2.47002e-09, No Iterations 4
adjusting mass flow for patch 2: frontAndBack
DICPCG:  Solving for p, Initial residual = 0.000224406, Final residual = 7.14192e-07, No Iterations 34
time step continuity errors : sum local = 6.51643e-07, global = -6.77461e-18, cumulative = 1.709e-16
ExecutionTime = 13.59 s  ClockTime = 25 s

Time = 92

min(V) [0 3 0 0 0 0 0] 1.11111e-07
DILUPBiCG:  Solving for Ux, Initial residual = 0.000295181, Final residual = 1.56165e-09, No Iterations 4
DILUPBiCG:  Solving for Uy, Initial residual = 0.000444872, Final residual = 2.35077e-09, No Iterations 4
adjusting mass flow for patch 2: frontAndBack
DICPCG:  Solving for p, Initial residual = 0.000216658, Final residual = 6.69435e-07, No Iterations 34
time step continuity errors : sum local = 6.10869e-07, global = -1.01239e-16, cumulative = 6.96615e-17
ExecutionTime = 13.7 s  ClockTime = 25 s

Time = 93

min(V) [0 3 0 0 0 0 0] 1.11111e-07
DILUPBiCG:  Solving for Ux, Initial residual = 0.000285205, Final residual = 1.5055e-09, No Iterations 4
DILUPBiCG:  Solving for Uy, Initial residual = 0.000429855, Final residual = 2.24377e-09, No Iterations 4
adjusting mass flow for patch 2: frontAndBack
DICPCG:  Solving for p, Initial residual = 0.000209203, Final residual = 6.93021e-07, No Iterations 34
time step continuity errors : sum local = 6.32215e-07, global = 6.58684e-17, cumulative = 1.3553e-16
ExecutionTime = 13.82 s  ClockTime = 26 s

Time = 94

min(V) [0 3 0 0 0 0 0] 1.11111e-07
DILUPBiCG:  Solving for Ux, Initial residual = 0.000275584, Final residual = 1.45151e-09, No Iterations 4
DILUPBiCG:  Solving for Uy, Initial residual = 0.000415355, Final residual = 2.14643e-09, No Iterations 4
adjusting mass flow for patch 2: frontAndBack
DICPCG:  Solving for p, Initial residual = 0.000202004, Final residual = 6.50371e-07, No Iterations 34
time step continuity errors : sum local = 5.93386e-07, global = -2.83723e-18, cumulative = 1.32693e-16
ExecutionTime = 13.94 s  ClockTime = 26 s

Time = 95

min(V) [0 3 0 0 0 0 0] 1.11111e-07
DILUPBiCG:  Solving for Ux, Initial residual = 0.000266304, Final residual = 1.39957e-09, No Iterations 4
DILUPBiCG:  Solving for Uy, Initial residual = 0.000401357, Final residual = 2.05661e-09, No Iterations 4
adjusting mass flow for patch 2: frontAndBack
DICPCG:  Solving for p, Initial residual = 0.000195042, Final residual = 9.36632e-07, No Iterations 33
time step continuity errors : sum local = 8.52951e-07, global = -1.75635e-16, cumulative = -4.29426e-17
ExecutionTime = 14.05 s  ClockTime = 26 s

Time = 96

min(V) [0 3 0 0 0 0 0] 1.11111e-07
DILUPBiCG:  Solving for Ux, Initial residual = 0.000257343, Final residual = 1.34937e-09, No Iterations 4
DILUPBiCG:  Solving for Uy, Initial residual = 0.000387845, Final residual = 1.97296e-09, No Iterations 4
adjusting mass flow for patch 2: frontAndBack
DICPCG:  Solving for p, Initial residual = 0.000188324, Final residual = 8.35738e-07, No Iterations 33
time step continuity errors : sum local = 7.59862e-07, global = -1.5187e-17, cumulative = -5.81296e-17
ExecutionTime = 14.16 s  ClockTime = 27 s

Time = 97

min(V) [0 3 0 0 0 0 0] 1.11111e-07
DILUPBiCG:  Solving for Ux, Initial residual = 0.000248691, Final residual = 1.30114e-09, No Iterations 4
DILUPBiCG:  Solving for Uy, Initial residual = 0.000374807, Final residual = 1.89537e-09, No Iterations 4
adjusting mass flow for patch 2: frontAndBack
DICPCG:  Solving for p, Initial residual = 0.000181857, Final residual = 8.16018e-07, No Iterations 33
time step continuity errors : sum local = 7.42226e-07, global = 8.17172e-17, cumulative = 2.35875e-17
ExecutionTime = 14.28 s  ClockTime = 27 s

Time = 98

min(V) [0 3 0 0 0 0 0] 1.11111e-07
DILUPBiCG:  Solving for Ux, Initial residual = 0.000240336, Final residual = 1.25471e-09, No Iterations 4
DILUPBiCG:  Solving for Uy, Initial residual = 0.000362217, Final residual = 1.82286e-09, No Iterations 4
adjusting mass flow for patch 2: frontAndBack
DICPCG:  Solving for p, Initial residual = 0.000175625, Final residual = 7.95368e-07, No Iterations 33
time step continuity errors : sum local = 7.23588e-07, global = 1.0176e-16, cumulative = 1.25347e-16
ExecutionTime = 14.4 s  ClockTime = 27 s

Time = 99

min(V) [0 3 0 0 0 0 0] 1.11111e-07
DILUPBiCG:  Solving for Ux, Initial residual = 0.000232274, Final residual = 1.21e-09, No Iterations 4
DILUPBiCG:  Solving for Uy, Initial residual = 0.000350058, Final residual = 1.75457e-09, No Iterations 4
adjusting mass flow for patch 2: frontAndBack
DICPCG:  Solving for p, Initial residual = 0.000169615, Final residual = 7.48304e-07, No Iterations 33
time step continuity errors : sum local = 6.80162e-07, global = -7.3404e-17, cumulative = 5.19433e-17
ExecutionTime = 14.51 s  ClockTime = 27 s

Time = 100

min(V) [0 3 0 0 0 0 0] 1.11111e-07
DILUPBiCG:  Solving for Ux, Initial residual = 0.000224487, Final residual = 1.16693e-09, No Iterations 4
DILUPBiCG:  Solving for Uy, Initial residual = 0.000338318, Final residual = 1.69019e-09, No Iterations 4
adjusting mass flow for patch 2: frontAndBack
DICPCG:  Solving for p, Initial residual = 0.000163815, Final residual = 7.09766e-07, No Iterations 33
time step continuity errors : sum local = 6.44574e-07, global = -6.27913e-17, cumulative = -1.0848e-17
ExecutionTime = 14.65 s  ClockTime = 28 s

Time = 101

min(V) [0 3 0 0 0 0 0] 1.11111e-07
DILUPBiCG:  Solving for Ux, Initial residual = 0.000216966, Final residual = 1.12541e-09, No Iterations 4
DILUPBiCG:  Solving for Uy, Initial residual = 0.000326983, Final residual = 1.62929e-09, No Iterations 4
adjusting mass flow for patch 2: frontAndBack
DICPCG:  Solving for p, Initial residual = 0.000158214, Final residual = 6.82853e-07, No Iterations 33
time step continuity errors : sum local = 6.20039e-07, global = 3.27812e-17, cumulative = 2.19332e-17
ExecutionTime = 14.76 s  ClockTime = 28 s

Time = 102

min(V) [0 3 0 0 0 0 0] 1.11111e-07
DILUPBiCG:  Solving for Ux, Initial residual = 0.000209703, Final residual = 1.08536e-09, No Iterations 4
DILUPBiCG:  Solving for Uy, Initial residual = 0.000316035, Final residual = 1.57142e-09, No Iterations 4
adjusting mass flow for patch 2: frontAndBack
DICPCG:  Solving for p, Initial residual = 0.000152813, Final residual = 9.89775e-07, No Iterations 32
time step continuity errors : sum local = 8.96241e-07, global = 1.09742e-16, cumulative = 1.31675e-16
ExecutionTime = 14.87 s  ClockTime = 28 s

Time = 103

min(V) [0 3 0 0 0 0 0] 1.11111e-07
DILUPBiCG:  Solving for Ux, Initial residual = 0.000202687, Final residual = 9.88912e-09, No Iterations 3
DILUPBiCG:  Solving for Uy, Initial residual = 0.000305461, Final residual = 1.51615e-09, No Iterations 4
adjusting mass flow for patch 2: frontAndBack
DICPCG:  Solving for p, Initial residual = 0.000147616, Final residual = 9.38156e-07, No Iterations 32
time step continuity errors : sum local = 8.48478e-07, global = -1.12588e-16, cumulative = 1.90877e-17
ExecutionTime = 14.99 s  ClockTime = 28 s

Time = 104

min(V) [0 3 0 0 0 0 0] 1.11111e-07
DILUPBiCG:  Solving for Ux, Initial residual = 0.000195911, Final residual = 9.53071e-09, No Iterations 3
DILUPBiCG:  Solving for Uy, Initial residual = 0.00029525, Final residual = 1.46387e-09, No Iterations 4
adjusting mass flow for patch 2: frontAndBack
DICPCG:  Solving for p, Initial residual = 0.0001426, Final residual = 9.02053e-07, No Iterations 32
time step continuity errors : sum local = 8.1587e-07, global = -1.34028e-16, cumulative = -1.1494e-16
ExecutionTime = 15.11 s  ClockTime = 28 s

Time = 105

min(V) [0 3 0 0 0 0 0] 1.11111e-07
DILUPBiCG:  Solving for Ux, Initial residual = 0.000189365, Final residual = 9.18738e-09, No Iterations 3
DILUPBiCG:  Solving for Uy, Initial residual = 0.000285387, Final residual = 1.41379e-09, No Iterations 4
adjusting mass flow for patch 2: frontAndBack
DICPCG:  Solving for p, Initial residual = 0.000137754, Final residual = 8.71156e-07, No Iterations 32
time step continuity errors : sum local = 7.87892e-07, global = 8.42235e-17, cumulative = -3.07169e-17
ExecutionTime = 15.23 s  ClockTime = 29 s

Time = 106

min(V) [0 3 0 0 0 0 0] 1.11111e-07
DILUPBiCG:  Solving for Ux, Initial residual = 0.000183041, Final residual = 8.85837e-09, No Iterations 3
DILUPBiCG:  Solving for Uy, Initial residual = 0.000275859, Final residual = 1.36578e-09, No Iterations 4
adjusting mass flow for patch 2: frontAndBack
DICPCG:  Solving for p, Initial residual = 0.00013307, Final residual = 8.38836e-07, No Iterations 32
time step continuity errors : sum local = 7.58264e-07, global = -8.54974e-17, cumulative = -1.16214e-16
ExecutionTime = 15.34 s  ClockTime = 29 s

Time = 107

min(V) [0 3 0 0 0 0 0] 1.11111e-07
DILUPBiCG:  Solving for Ux, Initial residual = 0.000176932, Final residual = 8.54296e-09, No Iterations 3
DILUPBiCG:  Solving for Uy, Initial residual = 0.000266656, Final residual = 1.3196e-09, No Iterations 4
adjusting mass flow for patch 2: frontAndBack
DICPCG:  Solving for p, Initial residual = 0.000128553, Final residual = 8.04542e-07, No Iterations 32
time step continuity errors : sum local = 7.2703e-07, global = -2.4104e-17, cumulative = -1.40318e-16
ExecutionTime = 15.45 s  ClockTime = 29 s

Time = 108

min(V) [0 3 0 0 0 0 0] 1.11111e-07
DILUPBiCG:  Solving for Ux, Initial residual = 0.00017103, Final residual = 8.24002e-09, No Iterations 3
DILUPBiCG:  Solving for Uy, Initial residual = 0.000257765, Final residual = 1.27521e-09, No Iterations 4
adjusting mass flow for patch 2: frontAndBack
DICPCG:  Solving for p, Initial residual = 0.000124202, Final residual = 7.67529e-07, No Iterations 32
time step continuity errors : sum local = 6.93484e-07, global = -1.23448e-16, cumulative = -2.63767e-16
ExecutionTime = 15.58 s  ClockTime = 29 s

Time = 109

min(V) [0 3 0 0 0 0 0] 1.11111e-07
DILUPBiCG:  Solving for Ux, Initial residual = 0.000165327, Final residual = 7.94953e-09, No Iterations 3
DILUPBiCG:  Solving for Uy, Initial residual = 0.000249175, Final residual = 1.2326e-09, No Iterations 4
adjusting mass flow for patch 2: frontAndBack
DICPCG:  Solving for p, Initial residual = 0.000120008, Final residual = 7.29153e-07, No Iterations 32
time step continuity errors : sum local = 6.58643e-07, global = 5.49496e-17, cumulative = -2.08817e-16
ExecutionTime = 15.7 s  ClockTime = 30 s

Time = 110

min(V) [0 3 0 0 0 0 0] 1.11111e-07
DILUPBiCG:  Solving for Ux, Initial residual = 0.000159817, Final residual = 7.67101e-09, No Iterations 3
DILUPBiCG:  Solving for Uy, Initial residual = 0.000240877, Final residual = 1.19158e-09, No Iterations 4
adjusting mass flow for patch 2: frontAndBack
DICPCG:  Solving for p, Initial residual = 0.000115958, Final residual = 9.965e-07, No Iterations 30
time step continuity errors : sum local = 8.97007e-07, global = -2.09144e-16, cumulative = -4.17961e-16
ExecutionTime = 15.81 s  ClockTime = 30 s

Time = 111

min(V) [0 3 0 0 0 0 0] 1.11111e-07
DILUPBiCG:  Solving for Ux, Initial residual = 0.000154493, Final residual = 7.40528e-09, No Iterations 3
DILUPBiCG:  Solving for Uy, Initial residual = 0.00023286, Final residual = 1.15268e-09, No Iterations 4
adjusting mass flow for patch 2: frontAndBack
DICPCG:  Solving for p, Initial residual = 0.000112115, Final residual = 7.65042e-07, No Iterations 30
time step continuity errors : sum local = 6.88975e-07, global = 6.7225e-17, cumulative = -3.50737e-16
ExecutionTime = 15.93 s  ClockTime = 30 s

Time = 112

min(V) [0 3 0 0 0 0 0] 1.11111e-07
DILUPBiCG:  Solving for Ux, Initial residual = 0.00014935, Final residual = 7.14868e-09, No Iterations 3
DILUPBiCG:  Solving for Uy, Initial residual = 0.000225113, Final residual = 1.11436e-09, No Iterations 4
adjusting mass flow for patch 2: frontAndBack
DICPCG:  Solving for p, Initial residual = 0.000108372, Final residual = 7.64823e-07, No Iterations 27
time step continuity errors : sum local = 6.92668e-07, global = 3.2351e-17, cumulative = -3.18385e-16
ExecutionTime = 16.06 s  ClockTime = 30 s

Time = 113

min(V) [0 3 0 0 0 0 0] 1.11111e-07
DILUPBiCG:  Solving for Ux, Initial residual = 0.00014438, Final residual = 6.90081e-09, No Iterations 3
DILUPBiCG:  Solving for Uy, Initial residual = 0.000217628, Final residual = 1.07682e-09, No Iterations 4
adjusting mass flow for patch 2: frontAndBack
DICPCG:  Solving for p, Initial residual = 0.000104786, Final residual = 5.67348e-07, No Iterations 27
time step continuity errors : sum local = 5.12333e-07, global = 7.5017e-17, cumulative = -2.43368e-16
ExecutionTime = 16.17 s  ClockTime = 31 s

Time = 114

min(V) [0 3 0 0 0 0 0] 1.11111e-07
DILUPBiCG:  Solving for Ux, Initial residual = 0.000139579, Final residual = 6.66359e-09, No Iterations 3
DILUPBiCG:  Solving for Uy, Initial residual = 0.000210394, Final residual = 1.04129e-09, No Iterations 4
adjusting mass flow for patch 2: frontAndBack
DICPCG:  Solving for p, Initial residual = 0.00010121, Final residual = 6.34607e-07, No Iterations 27
time step continuity errors : sum local = 5.72788e-07, global = -2.52456e-17, cumulative = -2.68614e-16
ExecutionTime = 16.28 s  ClockTime = 31 s

Time = 115

min(V) [0 3 0 0 0 0 0] 1.11111e-07
DILUPBiCG:  Solving for Ux, Initial residual = 0.000134939, Final residual = 6.43689e-09, No Iterations 3
DILUPBiCG:  Solving for Uy, Initial residual = 0.000203404, Final residual = 1.00747e-09, No Iterations 4
adjusting mass flow for patch 2: frontAndBack
DICPCG:  Solving for p, Initial residual = 9.77918e-05, Final residual = 6.33708e-07, No Iterations 27
time step continuity errors : sum local = 5.70342e-07, global = -3.25826e-17, cumulative = -3.01197e-16
ExecutionTime = 16.4 s  ClockTime = 31 s

Time = 116

min(V) [0 3 0 0 0 0 0] 1.11111e-07
DILUPBiCG:  Solving for Ux, Initial residual = 0.000130455, Final residual = 6.21829e-09, No Iterations 3
DILUPBiCG:  Solving for Uy, Initial residual = 0.000196649, Final residual = 9.748e-10, No Iterations 4
adjusting mass flow for patch 2: frontAndBack
DICPCG:  Solving for p, Initial residual = 9.45371e-05, Final residual = 5.87969e-07, No Iterations 27
time step continuity errors : sum local = 5.31512e-07, global = 2.22148e-16, cumulative = -7.9049e-17
ExecutionTime = 16.57 s  ClockTime = 32 s

Time = 117

min(V) [0 3 0 0 0 0 0] 1.11111e-07
DILUPBiCG:  Solving for Ux, Initial residual = 0.000126124, Final residual = 6.007e-09, No Iterations 3
DILUPBiCG:  Solving for Uy, Initial residual = 0.000190121, Final residual = 9.42922e-10, No Iterations 4
adjusting mass flow for patch 2: frontAndBack
DICPCG:  Solving for p, Initial residual = 9.13696e-05, Final residual = 7.4957e-07, No Iterations 27
time step continuity errors : sum local = 6.79579e-07, global = -1.5824e-17, cumulative = -9.4873e-17
ExecutionTime = 16.76 s  ClockTime = 32 s

Time = 118

min(V) [0 3 0 0 0 0 0] 1.11111e-07
DILUPBiCG:  Solving for Ux, Initial residual = 0.000121938, Final residual = 5.80293e-09, No Iterations 3
DILUPBiCG:  Solving for Uy, Initial residual = 0.000183811, Final residual = 9.11955e-10, No Iterations 4
adjusting mass flow for patch 2: frontAndBack
DICPCG:  Solving for p, Initial residual = 8.83045e-05, Final residual = 5.59673e-07, No Iterations 29
time step continuity errors : sum local = 5.04601e-07, global = 9.43813e-17, cumulative = -4.91687e-19
ExecutionTime = 16.91 s  ClockTime = 32 s

Time = 119

min(V) [0 3 0 0 0 0 0] 1.11111e-07
DILUPBiCG:  Solving for Ux, Initial residual = 0.000117883, Final residual = 5.60814e-09, No Iterations 3
DILUPBiCG:  Solving for Uy, Initial residual = 0.000177729, Final residual = 8.82158e-10, No Iterations 4
adjusting mass flow for patch 2: frontAndBack
DICPCG:  Solving for p, Initial residual = 8.5261e-05, Final residual = 9.68732e-07, No Iterations 25
time step continuity errors : sum local = 8.70875e-07, global = 3.5051e-16, cumulative = 3.50018e-16
ExecutionTime = 17.08 s  ClockTime = 32 s

Time = 120

min(V) [0 3 0 0 0 0 0] 1.11111e-07
DILUPBiCG:  Solving for Ux, Initial residual = 0.000113979, Final residual = 5.41604e-09, No Iterations 3
DILUPBiCG:  Solving for Uy, Initial residual = 0.00017183, Final residual = 8.53249e-10, No Iterations 4
adjusting mass flow for patch 2: frontAndBack
DICPCG:  Solving for p, Initial residual = 8.22744e-05, Final residual = 7.27353e-07, No Iterations 27
time step continuity errors : sum local = 6.59441e-07, global = -1.77935e-16, cumulative = 1.72083e-16
ExecutionTime = 17.22 s  ClockTime = 33 s

Time = 121

min(V) [0 3 0 0 0 0 0] 1.11111e-07
DILUPBiCG:  Solving for Ux, Initial residual = 0.000110202, Final residual = 5.23568e-09, No Iterations 3
DILUPBiCG:  Solving for Uy, Initial residual = 0.000166134, Final residual = 8.25471e-10, No Iterations 4
adjusting mass flow for patch 2: frontAndBack
DICPCG:  Solving for p, Initial residual = 7.96265e-05, Final residual = 9.7647e-07, No Iterations 16
time step continuity errors : sum local = 1.26748e-06, global = 7.57863e-17, cumulative = 2.47869e-16
ExecutionTime = 17.37 s  ClockTime = 33 s

Time = 122

min(V) [0 3 0 0 0 0 0] 1.11111e-07
DILUPBiCG:  Solving for Ux, Initial residual = 0.000106571, Final residual = 5.06397e-09, No Iterations 3
DILUPBiCG:  Solving for Uy, Initial residual = 0.000160601, Final residual = 7.98533e-10, No Iterations 4
adjusting mass flow for patch 2: frontAndBack
DICPCG:  Solving for p, Initial residual = 7.70524e-05, Final residual = 5.40779e-07, No Iterations 29
time step continuity errors : sum local = 4.87034e-07, global = 5.81177e-17, cumulative = 3.05987e-16
ExecutionTime = 17.5 s  ClockTime = 33 s

Time = 123

min(V) [0 3 0 0 0 0 0] 1.11111e-07
DILUPBiCG:  Solving for Ux, Initial residual = 0.000103006, Final residual = 4.89563e-09, No Iterations 3
DILUPBiCG:  Solving for Uy, Initial residual = 0.000155332, Final residual = 7.7292e-10, No Iterations 4
adjusting mass flow for patch 2: frontAndBack
DICPCG:  Solving for p, Initial residual = 7.4442e-05, Final residual = 8.0087e-07, No Iterations 25
time step continuity errors : sum local = 7.2065e-07, global = -1.2057e-16, cumulative = 1.85417e-16
ExecutionTime = 17.64 s  ClockTime = 33 s

Time = 124

min(V) [0 3 0 0 0 0 0] 1.11111e-07
DILUPBiCG:  Solving for Ux, Initial residual = 9.95877e-05, Final residual = 4.72441e-09, No Iterations 3
DILUPBiCG:  Solving for Uy, Initial residual = 0.000150203, Final residual = 7.47935e-10, No Iterations 4
adjusting mass flow for patch 2: frontAndBack
DICPCG:  Solving for p, Initial residual = 7.19187e-05, Final residual = 9.89533e-07, No Iterations 15
time step continuity errors : sum local = 1.22016e-06, global = -1.36559e-16, cumulative = 4.88579e-17
ExecutionTime = 17.77 s  ClockTime = 34 s

Time = 125

min(V) [0 3 0 0 0 0 0] 1.11111e-07
DILUPBiCG:  Solving for Ux, Initial residual = 9.63252e-05, Final residual = 4.56791e-09, No Iterations 3
DILUPBiCG:  Solving for Uy, Initial residual = 0.000145184, Final residual = 7.23265e-10, No Iterations 4
adjusting mass flow for patch 2: frontAndBack
DICPCG:  Solving for p, Initial residual = 6.9563e-05, Final residual = 8.51708e-07, No Iterations 25
time step continuity errors : sum local = 7.663e-07, global = 1.79267e-16, cumulative = 2.28124e-16
ExecutionTime = 17.91 s  ClockTime = 34 s

Time = 126

min(V) [0 3 0 0 0 0 0] 1.11111e-07
DILUPBiCG:  Solving for Ux, Initial residual = 9.31324e-05, Final residual = 4.41871e-09, No Iterations 3
DILUPBiCG:  Solving for Uy, Initial residual = 0.000140393, Final residual = 6.996e-10, No Iterations 4
adjusting mass flow for patch 2: frontAndBack
DICPCG:  Solving for p, Initial residual = 6.7108e-05, Final residual = 9.9857e-07, No Iterations 28
time step continuity errors : sum local = 9.00199e-07, global = 1.85934e-16, cumulative = 4.14058e-16
ExecutionTime = 18.04 s  ClockTime = 34 s

Time = 127

min(V) [0 3 0 0 0 0 0] 1.11111e-07
DILUPBiCG:  Solving for Ux, Initial residual = 9.00361e-05, Final residual = 4.27214e-09, No Iterations 3
DILUPBiCG:  Solving for Uy, Initial residual = 0.000135773, Final residual = 6.7739e-10, No Iterations 4
adjusting mass flow for patch 2: frontAndBack
DICPCG:  Solving for p, Initial residual = 6.49927e-05, Final residual = 9.63346e-07, No Iterations 15
time step continuity errors : sum local = 1.19356e-06, global = -1.45385e-16, cumulative = 2.68673e-16
ExecutionTime = 18.18 s  ClockTime = 34 s

Time = 128

min(V) [0 3 0 0 0 0 0] 1.11111e-07
DILUPBiCG:  Solving for Ux, Initial residual = 8.70815e-05, Final residual = 4.12963e-09, No Iterations 3
DILUPBiCG:  Solving for Uy, Initial residual = 0.000131253, Final residual = 6.55114e-10, No Iterations 4
adjusting mass flow for patch 2: frontAndBack
DICPCG:  Solving for p, Initial residual = 6.28625e-05, Final residual = 8.34354e-07, No Iterations 25
time step continuity errors : sum local = 7.50329e-07, global = -9.16599e-17, cumulative = 1.77013e-16
ExecutionTime = 18.32 s  ClockTime = 35 s

Time = 129

min(V) [0 3 0 0 0 0 0] 1.11111e-07
DILUPBiCG:  Solving for Ux, Initial residual = 8.41947e-05, Final residual = 3.99423e-09, No Iterations 3
DILUPBiCG:  Solving for Uy, Initial residual = 0.000126932, Final residual = 6.33616e-10, No Iterations 4
adjusting mass flow for patch 2: frontAndBack
DICPCG:  Solving for p, Initial residual = 6.05856e-05, Final residual = 8.73214e-07, No Iterations 25
time step continuity errors : sum local = 7.87812e-07, global = 1.26029e-16, cumulative = 3.03042e-16
ExecutionTime = 18.45 s  ClockTime = 35 s

Time = 130

min(V) [0 3 0 0 0 0 0] 1.11111e-07
DILUPBiCG:  Solving for Ux, Initial residual = 8.14107e-05, Final residual = 3.85956e-09, No Iterations 3
DILUPBiCG:  Solving for Uy, Initial residual = 0.000122742, Final residual = 6.13114e-10, No Iterations 4
adjusting mass flow for patch 2: frontAndBack
DICPCG:  Solving for p, Initial residual = 5.85716e-05, Final residual = 8.60539e-07, No Iterations 15
time step continuity errors : sum local = 1.06213e-06, global = -3.56928e-17, cumulative = 2.67349e-16
ExecutionTime = 18.59 s  ClockTime = 35 s

Time = 131

min(V) [0 3 0 0 0 0 0] 1.11111e-07
DILUPBiCG:  Solving for Ux, Initial residual = 7.87322e-05, Final residual = 3.73222e-09, No Iterations 3
DILUPBiCG:  Solving for Uy, Initial residual = 0.000118672, Final residual = 5.93284e-10, No Iterations 4
adjusting mass flow for patch 2: frontAndBack
DICPCG:  Solving for p, Initial residual = 5.67045e-05, Final residual = 9.79338e-07, No Iterations 27
time step continuity errors : sum local = 8.82837e-07, global = 4.62477e-17, cumulative = 3.13597e-16
ExecutionTime = 18.73 s  ClockTime = 36 s

Time = 132

min(V) [0 3 0 0 0 0 0] 1.11111e-07
DILUPBiCG:  Solving for Ux, Initial residual = 7.61203e-05, Final residual = 3.61072e-09, No Iterations 3
DILUPBiCG:  Solving for Uy, Initial residual = 0.000114773, Final residual = 5.74157e-10, No Iterations 4
adjusting mass flow for patch 2: frontAndBack
DICPCG:  Solving for p, Initial residual = 5.49747e-05, Final residual = 9.70764e-07, No Iterations 16
time step continuity errors : sum local = 1.21783e-06, global = -4.14748e-17, cumulative = 2.72122e-16
ExecutionTime = 18.86 s  ClockTime = 36 s

Time = 133

min(V) [0 3 0 0 0 0 0] 1.11111e-07
DILUPBiCG:  Solving for Ux, Initial residual = 7.36305e-05, Final residual = 3.49127e-09, No Iterations 3
DILUPBiCG:  Solving for Uy, Initial residual = 0.000110955, Final residual = 5.552e-10, No Iterations 4
adjusting mass flow for patch 2: frontAndBack
DICPCG:  Solving for p, Initial residual = 5.30313e-05, Final residual = 7.6115e-07, No Iterations 25
time step continuity errors : sum local = 6.85374e-07, global = -9.00055e-17, cumulative = 1.82117e-16
ExecutionTime = 19.02 s  ClockTime = 36 s

Time = 134

min(V) [0 3 0 0 0 0 0] 1.11111e-07
DILUPBiCG:  Solving for Ux, Initial residual = 7.11878e-05, Final residual = 3.3759e-09, No Iterations 3
DILUPBiCG:  Solving for Uy, Initial residual = 0.000107315, Final residual = 5.37116e-10, No Iterations 4
adjusting mass flow for patch 2: frontAndBack
DICPCG:  Solving for p, Initial residual = 5.10467e-05, Final residual = 7.9444e-07, No Iterations 25
time step continuity errors : sum local = 7.15974e-07, global = 9.31654e-17, cumulative = 2.75282e-16
ExecutionTime = 19.19 s  ClockTime = 36 s

Time = 135

min(V) [0 3 0 0 0 0 0] 1.11111e-07
DILUPBiCG:  Solving for Ux, Initial residual = 6.8837e-05, Final residual = 3.26142e-09, No Iterations 3
DILUPBiCG:  Solving for Uy, Initial residual = 0.000103777, Final residual = 5.1991e-10, No Iterations 4
adjusting mass flow for patch 2: frontAndBack
DICPCG:  Solving for p, Initial residual = 4.95074e-05, Final residual = 8.51207e-07, No Iterations 14
time step continuity errors : sum local = 9.84737e-07, global = 4.6074e-18, cumulative = 2.79889e-16
ExecutionTime = 19.33 s  ClockTime = 37 s

Time = 136

min(V) [0 3 0 0 0 0 0] 1.11111e-07
DILUPBiCG:  Solving for Ux, Initial residual = 6.65751e-05, Final residual = 3.15788e-09, No Iterations 3
DILUPBiCG:  Solving for Uy, Initial residual = 0.000100339, Final residual = 5.02835e-10, No Iterations 4
adjusting mass flow for patch 2: frontAndBack
DICPCG:  Solving for p, Initial residual = 4.80867e-05, Final residual = 9.6372e-07, No Iterations 15
time step continuity errors : sum local = 1.18968e-06, global = 2.33265e-18, cumulative = 2.82222e-16
ExecutionTime = 19.47 s  ClockTime = 37 s

Time = 137

min(V) [0 3 0 0 0 0 0] 1.11111e-07
DILUPBiCG:  Solving for Ux, Initial residual = 6.43976e-05, Final residual = 3.05374e-09, No Iterations 3
DILUPBiCG:  Solving for Uy, Initial residual = 9.70085e-05, Final residual = 4.86692e-10, No Iterations 4
adjusting mass flow for patch 2: frontAndBack
DICPCG:  Solving for p, Initial residual = 4.65671e-05, Final residual = 6.47283e-07, No Iterations 29
time step continuity errors : sum local = 5.86432e-07, global = -9.92617e-17, cumulative = 1.8296e-16
ExecutionTime = 19.62 s  ClockTime = 37 s

Time = 138

min(V) [0 3 0 0 0 0 0] 1.11111e-07
DILUPBiCG:  Solving for Ux, Initial residual = 6.22443e-05, Final residual = 2.95388e-09, No Iterations 3
DILUPBiCG:  Solving for Uy, Initial residual = 9.38587e-05, Final residual = 4.70891e-10, No Iterations 4
adjusting mass flow for patch 2: frontAndBack
DICPCG:  Solving for p, Initial residual = 4.47784e-05, Final residual = 9.66091e-07, No Iterations 25
time step continuity errors : sum local = 8.98554e-07, global = 1.03869e-16, cumulative = 2.86829e-16
ExecutionTime = 19.76 s  ClockTime = 37 s

Time = 139

min(V) [0 3 0 0 0 0 0] 1.11111e-07
DILUPBiCG:  Solving for Ux, Initial residual = 6.01834e-05, Final residual = 2.85212e-09, No Iterations 3
DILUPBiCG:  Solving for Uy, Initial residual = 9.07836e-05, Final residual = 4.5551e-10, No Iterations 4
adjusting mass flow for patch 2: frontAndBack
DICPCG:  Solving for p, Initial residual = 4.31411e-05, Final residual = 8.74705e-07, No Iterations 13
time step continuity errors : sum local = 9.64695e-07, global = -2.17714e-16, cumulative = 6.91156e-17
ExecutionTime = 19.92 s  ClockTime = 38 s

Time = 140

min(V) [0 3 0 0 0 0 0] 1.11111e-07
DILUPBiCG:  Solving for Ux, Initial residual = 5.82477e-05, Final residual = 2.75763e-09, No Iterations 3
DILUPBiCG:  Solving for Uy, Initial residual = 8.77172e-05, Final residual = 4.40359e-10, No Iterations 4
adjusting mass flow for patch 2: frontAndBack
DICPCG:  Solving for p, Initial residual = 4.1902e-05, Final residual = 9.99169e-07, No Iterations 13
time step continuity errors : sum local = 1.16017e-06, global = -1.88597e-18, cumulative = 6.72296e-17
ExecutionTime = 20.1 s  ClockTime = 38 s

Time = 141

min(V) [0 3 0 0 0 0 0] 1.11111e-07
DILUPBiCG:  Solving for Ux, Initial residual = 5.63484e-05, Final residual = 2.67158e-09, No Iterations 3
DILUPBiCG:  Solving for Uy, Initial residual = 8.47964e-05, Final residual = 4.25826e-10, No Iterations 4
adjusting mass flow for patch 2: frontAndBack
DICPCG:  Solving for p, Initial residual = 4.08146e-05, Final residual = 9.6192e-07, No Iterations 28
time step continuity errors : sum local = 8.66373e-07, global = 9.76404e-17, cumulative = 1.6487e-16
ExecutionTime = 20.28 s  ClockTime = 38 s

Time = 142

min(V) [0 3 0 0 0 0 0] 1.11111e-07
DILUPBiCG:  Solving for Ux, Initial residual = 5.44532e-05, Final residual = 2.58504e-09, No Iterations 3
DILUPBiCG:  Solving for Uy, Initial residual = 8.20667e-05, Final residual = 4.12542e-10, No Iterations 4
adjusting mass flow for patch 2: frontAndBack
DICPCG:  Solving for p, Initial residual = 3.92911e-05, Final residual = 9.79334e-07, No Iterations 14
time step continuity errors : sum local = 1.19193e-06, global = -2.11758e-17, cumulative = 1.43694e-16
ExecutionTime = 20.43 s  ClockTime = 39 s

Time = 143

min(V) [0 3 0 0 0 0 0] 1.11111e-07
DILUPBiCG:  Solving for Ux, Initial residual = 5.2666e-05, Final residual = 2.49949e-09, No Iterations 3
DILUPBiCG:  Solving for Uy, Initial residual = 7.93577e-05, Final residual = 3.98797e-10, No Iterations 4
adjusting mass flow for patch 2: frontAndBack
DICPCG:  Solving for p, Initial residual = 3.78808e-05, Final residual = 5.9387e-07, No Iterations 25
[...]
ExecutionTime = 23.81 s  ClockTime = 45 s

Time = 165

min(V) [0 3 0 0 0 0 0] 1.11111e-07
DILUPBiCG:  Solving for Ux, Initial residual = 2.5242e-05, Final residual = 1.19767e-09, No Iterations 3
DILUPBiCG:  Solving for Uy, Initial residual = 3.80279e-05, Final residual = 1.9238e-10, No Iterations 4
adjusting mass flow for patch 2: frontAndBack
DICPCG:  Solving for p, Initial residual = 1.80141e-05, Final residual = 7.49784e-07, No Iterations 8
time step continuity errors : sum local = 8.2069e-07, global = -1.00627e-16, cumulative = 2.76862e-16
ExecutionTime = 23.93 s  ClockTime = 45 s

Time = 166

min(V) [0 3 0 0 0 0 0] 1.11111e-07
DILUPBiCG:  Solving for Ux, Initial residual = 2.4422e-05, Final residual = 1.1589e-09, No Iterations 3
DILUPBiCG:  Solving for Uy, Initial residual = 3.67638e-05, Final residual = 1.85915e-10, No Iterations 4
adjusting mass flow for patch 2: frontAndBack
DICPCG:  Solving for p, Initial residual = 1.75967e-05, Final residual = 5.28287e-07, No Iterations 13
time step continuity errors : sum local = 6.79411e-07, global = 6.22288e-17, cumulative = 3.39091e-16
ExecutionTime = 24.04 s  ClockTime = 45 s

Time = 167

min(V) [0 3 0 0 0 0 0] 1.11111e-07
DILUPBiCG:  Solving for Ux, Initial residual = 2.36378e-05, Final residual = 1.12405e-09, No Iterations 3
DILUPBiCG:  Solving for Uy, Initial residual = 3.55249e-05, Final residual = 1.7963e-10, No Iterations 4
adjusting mass flow for patch 2: frontAndBack
DICPCG:  Solving for p, Initial residual = 1.70758e-05, Final residual = 6.98125e-07, No Iterations 13
time step continuity errors : sum local = 9.09791e-07, global = 1.71872e-16, cumulative = 5.10962e-16
ExecutionTime = 24.16 s  ClockTime = 45 s

Time = 168

min(V) [0 3 0 0 0 0 0] 1.11111e-07
DILUPBiCG:  Solving for Ux, Initial residual = 2.28669e-05, Final residual = 1.091e-09, No Iterations 3
DILUPBiCG:  Solving for Uy, Initial residual = 3.43482e-05, Final residual = 1.73604e-10, No Iterations 4
adjusting mass flow for patch 2: frontAndBack
DICPCG:  Solving for p, Initial residual = 1.65482e-05, Final residual = 9.75211e-07, No Iterations 8
time step continuity errors : sum local = 1.21438e-06, global = -9.14035e-18, cumulative = 5.01822e-16
ExecutionTime = 24.27 s  ClockTime = 46 s

Time = 169

min(V) [0 3 0 0 0 0 0] 1.11111e-07
DILUPBiCG:  Solving for Ux, Initial residual = 2.21109e-05, Final residual = 1.05567e-09, No Iterations 3
DILUPBiCG:  Solving for Uy, Initial residual = 3.32324e-05, Final residual = 1.68126e-10, No Iterations 4
adjusting mass flow for patch 2: frontAndBack
DICPCG:  Solving for p, Initial residual = 1.59106e-05, Final residual = 4.10267e-07, No Iterations 27
time step continuity errors : sum local = 3.70283e-07, global = 1.51705e-16, cumulative = 6.53527e-16
ExecutionTime = 24.39 s  ClockTime = 46 s

Time = 170

min(V) [0 3 0 0 0 0 0] 1.11111e-07
DILUPBiCG:  Solving for Ux, Initial residual = 2.13446e-05, Final residual = 1.01715e-09, No Iterations 3
DILUPBiCG:  Solving for Uy, Initial residual = 3.22061e-05, Final residual = 1.62881e-10, No Iterations 4
adjusting mass flow for patch 2: frontAndBack
DICPCG:  Solving for p, Initial residual = 1.5285e-05, Final residual = 6.75677e-07, No Iterations 8
time step continuity errors : sum local = 7.6057e-07, global = 6.06737e-17, cumulative = 7.14201e-16
ExecutionTime = 24.51 s  ClockTime = 46 s

Time = 171

min(V) [0 3 0 0 0 0 0] 1.11111e-07
DILUPBiCG:  Solving for Ux, Initial residual = 2.06531e-05, Final residual = 9.80305e-10, No Iterations 3
DILUPBiCG:  Solving for Uy, Initial residual = 3.11277e-05, Final residual = 1.57625e-10, No Iterations 4
adjusting mass flow for patch 2: frontAndBack
DICPCG:  Solving for p, Initial residual = 1.49329e-05, Final residual = 7.69569e-07, No Iterations 8
time step continuity errors : sum local = 7.98932e-07, global = 2.8273e-17, cumulative = 7.42474e-16
ExecutionTime = 24.62 s  ClockTime = 47 s

Time = 172

min(V) [0 3 0 0 0 0 0] 1.11111e-07
DILUPBiCG:  Solving for Ux, Initial residual = 1.99941e-05, Final residual = 9.49947e-10, No Iterations 3
DILUPBiCG:  Solving for Uy, Initial residual = 3.00753e-05, Final residual = 1.52311e-10, No Iterations 4
adjusting mass flow for patch 2: frontAndBack
DICPCG:  Solving for p, Initial residual = 1.44981e-05, Final residual = 9.0299e-07, No Iterations 12
time step continuity errors : sum local = 9.51419e-07, global = 4.15989e-17, cumulative = 7.84073e-16
ExecutionTime = 24.74 s  ClockTime = 47 s

Time = 173

min(V) [0 3 0 0 0 0 0] 1.11111e-07
DILUPBiCG:  Solving for Ux, Initial residual = 1.93591e-05, Final residual = 9.23199e-10, No Iterations 3
DILUPBiCG:  Solving for Uy, Initial residual = 2.90529e-05, Final residual = 1.4707e-10, No Iterations 4
adjusting mass flow for patch 2: frontAndBack
DICPCG:  Solving for p, Initial residual = 1.39709e-05, Final residual = 8.94318e-07, No Iterations 8
time step continuity errors : sum local = 1.00123e-06, global = 1.03571e-16, cumulative = 8.87644e-16
ExecutionTime = 24.86 s  ClockTime = 47 s

Time = 174

min(V) [0 3 0 0 0 0 0] 1.11111e-07
DILUPBiCG:  Solving for Ux, Initial residual = 1.87215e-05, Final residual = 8.93378e-10, No Iterations 3
DILUPBiCG:  Solving for Uy, Initial residual = 2.81046e-05, Final residual = 1.42295e-10, No Iterations 4
adjusting mass flow for patch 2: frontAndBack
DICPCG:  Solving for p, Initial residual = 1.35086e-05, Final residual = 7.64581e-07, No Iterations 13
time step continuity errors : sum local = 9.82477e-07, global = -1.07203e-17, cumulative = 8.76924e-16
ExecutionTime = 24.98 s  ClockTime = 47 s

Time = 175

min(V) [0 3 0 0 0 0 0] 1.11111e-07
DILUPBiCG:  Solving for Ux, Initial residual = 1.80921e-05, Final residual = 8.62626e-10, No Iterations 3
DILUPBiCG:  Solving for Uy, Initial residual = 2.72017e-05, Final residual = 1.37221e-10, No Iterations 4
adjusting mass flow for patch 2: frontAndBack
DICPCG:  Solving for p, Initial residual = 1.30019e-05, Final residual = 8.77107e-07, No Iterations 8
time step continuity errors : sum local = 1.11726e-06, global = -3.10449e-16, cumulative = 5.66474e-16
ExecutionTime = 25.1 s  ClockTime = 48 s

Time = 176

min(V) [0 3 0 0 0 0 0] 1.11111e-07
DILUPBiCG:  Solving for Ux, Initial residual = 1.74943e-05, Final residual = 8.3467e-10, No Iterations 3
DILUPBiCG:  Solving for Uy, Initial residual = 2.63163e-05, Final residual = 1.33084e-10, No Iterations 4
adjusting mass flow for patch 2: frontAndBack
DICPCG:  Solving for p, Initial residual = 1.25553e-05, Final residual = 8.37142e-07, No Iterations 23
time step continuity errors : sum local = 7.54449e-07, global = -2.1606e-16, cumulative = 3.50415e-16
ExecutionTime = 25.22 s  ClockTime = 48 s

Time = 177

min(V) [0 3 0 0 0 0 0] 1.11111e-07
DILUPBiCG:  Solving for Ux, Initial residual = 1.69006e-05, Final residual = 8.03735e-10, No Iterations 3
DILUPBiCG:  Solving for Uy, Initial residual = 2.54868e-05, Final residual = 9.98397e-09, No Iterations 3
adjusting mass flow for patch 2: frontAndBack
DICPCG:  Solving for p, Initial residual = 1.21994e-05, Final residual = 5.07377e-07, No Iterations 8
time step continuity errors : sum local = 5.83802e-07, global = -7.37349e-17, cumulative = 2.7668e-16
ExecutionTime = 25.34 s  ClockTime = 48 s

Time = 178

min(V) [0 3 0 0 0 0 0] 1.11111e-07
DILUPBiCG:  Solving for Ux, Initial residual = 1.63506e-05, Final residual = 7.77115e-10, No Iterations 3
DILUPBiCG:  Solving for Uy, Initial residual = 2.46354e-05, Final residual = 9.71266e-09, No Iterations 3
adjusting mass flow for patch 2: frontAndBack
DICPCG:  Solving for p, Initial residual = 1.19456e-05, Final residual = 5.8167e-07, No Iterations 8
time step continuity errors : sum local = 6.00959e-07, global = -6.49419e-17, cumulative = 2.11738e-16
ExecutionTime = 25.45 s  ClockTime = 48 s

Time = 179

min(V) [0 3 0 0 0 0 0] 1.11111e-07
DILUPBiCG:  Solving for Ux, Initial residual = 1.58255e-05, Final residual = 7.53168e-10, No Iterations 3
DILUPBiCG:  Solving for Uy, Initial residual = 2.38079e-05, Final residual = 9.46834e-09, No Iterations 3
adjusting mass flow for patch 2: frontAndBack
DICPCG:  Solving for p, Initial residual = 1.1534e-05, Final residual = 8.49673e-07, No Iterations 8
time step continuity errors : sum local = 8.5807e-07, global = -5.69762e-17, cumulative = 1.54762e-16
ExecutionTime = 25.59 s  ClockTime = 49 s

Time = 180

min(V) [0 3 0 0 0 0 0] 1.11111e-07
DILUPBiCG:  Solving for Ux, Initial residual = 1.53169e-05, Final residual = 7.29838e-10, No Iterations 3
DILUPBiCG:  Solving for Uy, Initial residual = 2.30111e-05, Final residual = 9.27969e-09, No Iterations 3
adjusting mass flow for patch 2: frontAndBack
DICPCG:  Solving for p, Initial residual = 1.10939e-05, Final residual = 7.6541e-07, No Iterations 12
time step continuity errors : sum local = 8.47651e-07, global = -1.18775e-16, cumulative = 3.5987e-17
ExecutionTime = 25.71 s  ClockTime = 49 s

Time = 181

min(V) [0 3 0 0 0 0 0] 1.11111e-07
DILUPBiCG:  Solving for Ux, Initial residual = 1.48209e-05, Final residual = 7.08935e-10, No Iterations 3
DILUPBiCG:  Solving for Uy, Initial residual = 2.22434e-05, Final residual = 8.76968e-09, No Iterations 3
adjusting mass flow for patch 2: frontAndBack
DICPCG:  Solving for p, Initial residual = 1.06413e-05, Final residual = 7.69675e-07, No Iterations 8
time step continuity errors : sum local = 9.06719e-07, global = -1.22307e-16, cumulative = -8.63199e-17
ExecutionTime = 25.82 s  ClockTime = 49 s

Time = 182

min(V) [0 3 0 0 0 0 0] 1.11111e-07
DILUPBiCG:  Solving for Ux, Initial residual = 1.43303e-05, Final residual = 6.85368e-10, No Iterations 3
DILUPBiCG:  Solving for Uy, Initial residual = 2.15219e-05, Final residual = 8.55768e-09, No Iterations 3
adjusting mass flow for patch 2: frontAndBack
DICPCG:  Solving for p, Initial residual = 1.03084e-05, Final residual = 9.56644e-07, No Iterations 8
time step continuity errors : sum local = 1.13077e-06, global = 1.16748e-16, cumulative = 3.04283e-17
ExecutionTime = 25.94 s  ClockTime = 49 s

Time = 183

min(V) [0 3 0 0 0 0 0] 1.11111e-07
DILUPBiCG:  Solving for Ux, Initial residual = 1.38525e-05, Final residual = 6.61354e-10, No Iterations 3
DILUPBiCG:  Solving for Uy, Initial residual = 2.08272e-05, Final residual = 8.34083e-09, No Iterations 3
adjusting mass flow for patch 2: frontAndBack
DICPCG:  Solving for p, Initial residual = 9.97956e-06, Final residual = 9.00854e-07, No Iterations 13
time step continuity errors : sum local = 1.13901e-06, global = 2.1529e-16, cumulative = 2.45719e-16
ExecutionTime = 26.06 s  ClockTime = 50 s

Time = 184

min(V) [0 3 0 0 0 0 0] 1.11111e-07
DILUPBiCG:  Solving for Ux, Initial residual = 1.33911e-05, Final residual = 6.37485e-10, No Iterations 3
DILUPBiCG:  Solving for Uy, Initial residual = 2.01478e-05, Final residual = 7.89739e-09, No Iterations 3
adjusting mass flow for patch 2: frontAndBack
DICPCG:  Solving for p, Initial residual = 9.69368e-06, Final residual = 7.64131e-07, No Iterations 8
time step continuity errors : sum local = 1.00795e-06, global = 1.44591e-17, cumulative = 2.60178e-16
ExecutionTime = 26.18 s  ClockTime = 50 s

Time = 185

min(V) [0 3 0 0 0 0 0] 1.11111e-07
DILUPBiCG:  Solving for Ux, Initial residual = 1.29531e-05, Final residual = 6.1711e-10, No Iterations 3
DILUPBiCG:  Solving for Uy, Initial residual = 1.9486e-05, Final residual = 7.76393e-09, No Iterations 3
adjusting mass flow for patch 2: frontAndBack
DICPCG:  Solving for p, Initial residual = 9.38478e-06, Final residual = 9.08053e-07, No Iterations 8
time step continuity errors : sum local = 1.14194e-06, global = -1.15805e-17, cumulative = 2.48597e-16
ExecutionTime = 26.3 s  ClockTime = 50 s

Time = 186

min(V) [0 3 0 0 0 0 0] 1.11111e-07
DILUPBiCG:  Solving for Ux, Initial residual = 1.25313e-05, Final residual = 5.96275e-10, No Iterations 3
DILUPBiCG:  Solving for Uy, Initial residual = 1.88439e-05, Final residual = 7.67008e-09, No Iterations 3
adjusting mass flow for patch 2: frontAndBack
DICPCG:  Solving for p, Initial residual = 9.03833e-06, Final residual = 9.48451e-07, No Iterations 13
time step continuity errors : sum local = 1.1629e-06, global = -9.1238e-17, cumulative = 1.57359e-16
ExecutionTime = 26.42 s  ClockTime = 50 s

Time = 187

min(V) [0 3 0 0 0 0 0] 1.11111e-07
DILUPBiCG:  Solving for Ux, Initial residual = 1.21208e-05, Final residual = 5.7698e-10, No Iterations 3
DILUPBiCG:  Solving for Uy, Initial residual = 1.82205e-05, Final residual = 7.31925e-09, No Iterations 3
adjusting mass flow for patch 2: frontAndBack
DICPCG:  Solving for p, Initial residual = 8.68703e-06, Final residual = 8.41083e-07, No Iterations 8
time step continuity errors : sum local = 1.08333e-06, global = 2.11262e-17, cumulative = 1.78485e-16
ExecutionTime = 26.54 s  ClockTime = 51 s

Time = 188

min(V) [0 3 0 0 0 0 0] 1.11111e-07
DILUPBiCG:  Solving for Ux, Initial residual = 1.17232e-05, Final residual = 5.61274e-10, No Iterations 3
DILUPBiCG:  Solving for Uy, Initial residual = 1.76245e-05, Final residual = 7.15236e-09, No Iterations 3
adjusting mass flow for patch 2: frontAndBack
DICPCG:  Solving for p, Initial residual = 8.37337e-06, Final residual = 9.42705e-07, No Iterations 23
time step continuity errors : sum local = 8.48034e-07, global = -4.77531e-17, cumulative = 1.30732e-16
ExecutionTime = 26.66 s  ClockTime = 51 s

Time = 189

min(V) [0 3 0 0 0 0 0] 1.11111e-07
DILUPBiCG:  Solving for Ux, Initial residual = 1.1319e-05, Final residual = 5.41882e-10, No Iterations 3
DILUPBiCG:  Solving for Uy, Initial residual = 1.70835e-05, Final residual = 6.82562e-09, No Iterations 3
adjusting mass flow for patch 2: frontAndBack
DICPCG:  Solving for p, Initial residual = 8.38899e-06, Final residual = 8.56601e-07, No Iterations 7
time step continuity errors : sum local = 8.91192e-07, global = -2.98339e-16, cumulative = -1.67607e-16
ExecutionTime = 26.77 s  ClockTime = 51 s

Time = 190

min(V) [0 3 0 0 0 0 0] 1.11111e-07
DILUPBiCG:  Solving for Ux, Initial residual = 1.09518e-05, Final residual = 5.18797e-10, No Iterations 3
DILUPBiCG:  Solving for Uy, Initial residual = 1.65069e-05, Final residual = 6.65492e-09, No Iterations 3
adjusting mass flow for patch 2: frontAndBack
DICPCG:  Solving for p, Initial residual = 8.19689e-06, Final residual = 9.84784e-07, No Iterations 8
time step continuity errors : sum local = 9.6405e-07, global = 2.81738e-17, cumulative = -1.39433e-16
ExecutionTime = 26.89 s  ClockTime = 51 s

Time = 191

min(V) [0 3 0 0 0 0 0] 1.11111e-07
DILUPBiCG:  Solving for Ux, Initial residual = 1.06063e-05, Final residual = 5.03343e-10, No Iterations 3
DILUPBiCG:  Solving for Uy, Initial residual = 1.5946e-05, Final residual = 6.52698e-09, No Iterations 3
adjusting mass flow for patch 2: frontAndBack
DICPCG:  Solving for p, Initial residual = 7.76523e-06, Final residual = 8.51794e-07, No Iterations 11
time step continuity errors : sum local = 8.48579e-07, global = 7.38507e-17, cumulative = -6.55825e-17
ExecutionTime = 27 s  ClockTime = 52 s

Time = 192

min(V) [0 3 0 0 0 0 0] 1.11111e-07
DILUPBiCG:  Solving for Ux, Initial residual = 1.02697e-05, Final residual = 4.88777e-10, No Iterations 3
DILUPBiCG:  Solving for Uy, Initial residual = 1.5404e-05, Final residual = 6.23381e-09, No Iterations 3
adjusting mass flow for patch 2: frontAndBack
DICPCG:  Solving for p, Initial residual = 7.35602e-06, Final residual = 7.59164e-07, No Iterations 7
time step continuity errors : sum local = 8.14976e-07, global = -1.34169e-17, cumulative = -7.89994e-17
ExecutionTime = 27.12 s  ClockTime = 52 s

Time = 193

min(V) [0 3 0 0 0 0 0] 1.11111e-07
DILUPBiCG:  Solving for Ux, Initial residual = 9.93117e-06, Final residual = 4.78132e-10, No Iterations 3
DILUPBiCG:  Solving for Uy, Initial residual = 1.48995e-05, Final residual = 6.06435e-09, No Iterations 3
adjusting mass flow for patch 2: frontAndBack
DICPCG:  Solving for p, Initial residual = 7.10977e-06, Final residual = 8.89268e-07, No Iterations 7
time step continuity errors : sum local = 9.84127e-07, global = 2.20692e-16, cumulative = 1.41692e-16
ExecutionTime = 27.23 s  ClockTime = 52 s

Time = 194

min(V) [0 3 0 0 0 0 0] 1.11111e-07
DILUPBiCG:  Solving for Ux, Initial residual = 9.60009e-06, Final residual = 4.61083e-10, No Iterations 3
DILUPBiCG:  Solving for Uy, Initial residual = 1.4419e-05, Final residual = 5.84795e-09, No Iterations 3
adjusting mass flow for patch 2: frontAndBack
DICPCG:  Solving for p, Initial residual = 6.95995e-06, Final residual = 8.12084e-07, No Iterations 12
time step continuity errors : sum local = 9.81385e-07, global = -5.87298e-19, cumulative = 1.41105e-16
ExecutionTime = 27.34 s  ClockTime = 52 s

Time = 195

min(V) [0 3 0 0 0 0 0] 1.11111e-07
DILUPBiCG:  Solving for Ux, Initial residual = 9.27905e-06, Final residual = 4.46543e-10, No Iterations 3
DILUPBiCG:  Solving for Uy, Initial residual = 1.39542e-05, Final residual = 5.50236e-09, No Iterations 3
adjusting mass flow for patch 2: frontAndBack
DICPCG:  Solving for p, Initial residual = 6.76999e-06, Final residual = 8.44892e-07, No Iterations 7
time step continuity errors : sum local = 1.01162e-06, global = 1.45832e-16, cumulative = 2.86937e-16
ExecutionTime = 27.45 s  ClockTime = 53 s

Time = 196

min(V) [0 3 0 0 0 0 0] 1.11111e-07
DILUPBiCG:  Solving for Ux, Initial residual = 8.97412e-06, Final residual = 4.25524e-10, No Iterations 3
DILUPBiCG:  Solving for Uy, Initial residual = 1.34972e-05, Final residual = 5.47641e-09, No Iterations 3
adjusting mass flow for patch 2: frontAndBack
DICPCG:  Solving for p, Initial residual = 6.54699e-06, Final residual = 8.89446e-07, No Iterations 8
time step continuity errors : sum local = 1.06442e-06, global = 8.73503e-17, cumulative = 3.74287e-16
ExecutionTime = 27.57 s  ClockTime = 53 s

Time = 197

min(V) [0 3 0 0 0 0 0] 1.11111e-07
DILUPBiCG:  Solving for Ux, Initial residual = 8.68186e-06, Final residual = 4.12774e-10, No Iterations 3
DILUPBiCG:  Solving for Uy, Initial residual = 1.30538e-05, Final residual = 5.46238e-09, No Iterations 3
adjusting mass flow for patch 2: frontAndBack
DICPCG:  Solving for p, Initial residual = 6.24854e-06, Final residual = 9.35955e-07, No Iterations 12
time step continuity errors : sum local = 1.09166e-06, global = -1.37246e-16, cumulative = 2.37042e-16
ExecutionTime = 27.69 s  ClockTime = 53 s

Time = 198

min(V) [0 3 0 0 0 0 0] 1.11111e-07
DILUPBiCG:  Solving for Ux, Initial residual = 8.3969e-06, Final residual = 4.02693e-10, No Iterations 3
DILUPBiCG:  Solving for Uy, Initial residual = 1.26212e-05, Final residual = 4.96547e-09, No Iterations 3
adjusting mass flow for patch 2: frontAndBack
DICPCG:  Solving for p, Initial residual = 6.04573e-06, Final residual = 7.68843e-07, No Iterations 7
time step continuity errors : sum local = 9.47002e-07, global = -1.93883e-16, cumulative = 4.31587e-17
ExecutionTime = 27.81 s  ClockTime = 53 s

Time = 199

min(V) [0 3 0 0 0 0 0] 1.11111e-07
DILUPBiCG:  Solving for Ux, Initial residual = 8.12115e-06, Final residual = 3.87724e-10, No Iterations 3
DILUPBiCG:  Solving for Uy, Initial residual = 1.2207e-05, Final residual = 4.88982e-09, No Iterations 3
adjusting mass flow for patch 2: frontAndBack
DICPCG:  Solving for p, Initial residual = 5.83655e-06, Final residual = 8.96966e-07, No Iterations 7
time step continuity errors : sum local = 1.07126e-06, global = 1.17344e-16, cumulative = 1.60502e-16
ExecutionTime = 27.94 s  ClockTime = 54 s

Time = 200

min(V) [0 3 0 0 0 0 0] 1.11111e-07
DILUPBiCG:  Solving for Ux, Initial residual = 7.85465e-06, Final residual = 3.74271e-10, No Iterations 3
DILUPBiCG:  Solving for Uy, Initial residual = 1.18072e-05, Final residual = 4.87646e-09, No Iterations 3
adjusting mass flow for patch 2: frontAndBack
DICPCG:  Solving for p, Initial residual = 5.63522e-06, Final residual = 9.86191e-07, No Iterations 7
time step continuity errors : sum local = 1.16715e-06, global = 1.76917e-16, cumulative = 3.3742e-16
ExecutionTime = 28.07 s  ClockTime = 54 s

End

