/*---------------------------------------------------------------------------*\
| =========                 |                                                 |
| \\      /  F ield         | OpenFOAM: The Open Source CFD Toolbox           |
|  \\    /   O peration     | Version:  2.3.x                                 |
|   \\  /    A nd           | Web:      www.OpenFOAM.org                      |
|    \\/     M anipulation  |                                                 |
\*---------------------------------------------------------------------------*/
Build  : 2.3.x-7c5c5608f991
Exec   : interFoam -parallel
Date   : Jun 23 2015
Time   : 20:59:49
Host   : "freak"
PID    : 4721
Case   : /daten/flowOverClyinder/cylinder_multiphase_neu/3d
nProcs : 10
Slaves : 
9
(
"freak.4722"
"freak.4723"
"freak.4724"
"freak.4725"
"freak.4726"
"freak.4727"
"freak.4728"
"freak.4729"
"freak.4730"
)

Pstream initialized with:
    floatTransfer      : 0
    nProcsSimpleSum    : 0
    commsType          : nonBlocking
    polling iterations : 0
sigFpe : Enabling floating point exception trapping (FOAM_SIGFPE).
fileModificationChecking : Monitoring run-time modified files using timeStampMaster
allowSystemOperations : Allowing user-supplied system call operations

// * * * * * * * * * * * * * * * * * * * * * * * * * * * * * * * * * * * * * //
Create time

Create mesh for time = 0


PIMPLE: max iterations = 4
    field p_rgh	: relTol 0, tolerance 0.001
    field U	: relTol 0, tolerance 1e-05

Reading field p_rgh

Reading field U

Reading/calculating face flux field phi

Reading transportProperties

Selecting incompressible transport model Newtonian
Selecting incompressible transport model Newtonian
b
b
b
b
b
b
Selecting turbulence model type RASModel
Selecting RAS turbulence model kOmegaSST
kOmegaSSTCoeffs
{
    alphaK1         0.85;
    alphaK2         1;
    alphaOmega1     0.5;
    alphaOmega2     0.856;
    gamma1          0.555556;
    gamma2          0.44;
    beta1           0.075;
    beta2           0.0828;
    betaStar        0.09;
    a1              0.31;
    b1              1;
    c1              10;
    F3              false;
}


Reading g
Calculating field g.h

No finite volume options present

time step continuity errors : sum local = 1.0122e-05, global = -1.09068e-07, cumulative = -1.09068e-07
DILUbellerophonPBiCG:  Solving for pcorr, Initial residual = 1, Final residual = 7.96691e-06, No Iterations 410
Interface error : -0.00350056 / 42.2622
Interface error : -0.449919 / 53.114
time step continuity errors : sum local = 3.31878e-07, global = 3.31856e-07, cumulative = 2.22788e-07
Courant Number mean: 0.0154669 max: 0.282547
forces forces:
    Not including porosity effects

forceCoeffs coeffs:
    Not including porosity effects


Starting time loop

Courant Number mean: 0.0154669 max: 0.282547
Interface Courant Number mean: 6.23669e-08 max: 0.0830095
deltaT = 0.00117696
Time = 0.00117696

PIMPLE: iteration 1
DILUbellerophonPBiCG:  Solving for alpha.water, Initial residual = 9.97554e-07, Final residual = 1.13743e-09, No Iterations 2
Phase-1 volume fraction = 0.666667  Min(alpha.water) = 0  Max(alpha.water) = 1
MULES: Correcting alpha.water
MULES: Correcting alpha.water
MULES: Correcting alpha.water
Phase-1 volume fraction = 0.666667  Min(alpha.water) = -6.81356e-09  Max(alpha.water) = 1
DILUbellerophonPBiCG:  Solving for Ux, Initial residual = 0.000575278, Final residual = 8.66938e-09, No Iterations 4
DILUbellerophonPBiCG:  Solving for Uy, Initial residual = 0.00218005, Final residual = 1.33197e-08, No Iterations 4
DILUbellerophonPBiCG:  Solving for Uz, Initial residual = 1, Final residual = 9.74829e-06, No Iterations 3
DILUbellerophonPBiCG:  Solving for p_rgh, Initial residual = 0.214494, Final residual = 0.00196215, No Iterations 118
Interface error : 0.0202298 / 42.9551
Interface error : -0.575047 / 53.557
time step continuity errors : sum local = 6.83337e-06, global = 1.34609e-07, cumulative = 3.57397e-07
PIMPLE: iteration 2
DILUbellerophonPBiCG:  Solving for alpha.water, Initial residual = 1.26335e-06, Final residual = 4.1719e-10, No Iterations 2
Phase-1 volume fraction = 0.666667  Min(alpha.water) = -3.87445e-07  Max(alpha.water) = 1.00046
MULES: Correcting alpha.water
MULES: Correcting alpha.water
MULES: Correcting alpha.water
Phase-1 volume fraction = 0.666667  Min(alpha.water) = -3.87445e-07  Max(alpha.water) = 1.00046
DILUbellerophonPBiCG:  Solving for Ux, Initial residual = 7.66607e-05, Final residual = 5.01213e-09, No Iterations 3
DILUbellerophonPBiCG:  Solving for Uy, Initial residual = 0.000206328, Final residual = 4.96316e-09, No Iterations 5
DILUbellerophonPBiCG:  Solving for Uz, Initial residual = 0.00630551, Final residual = 6.26256e-08, No Iterations 4
DILUbellerophonPBiCG:  Solving for p_rgh, Initial residual = 0.0286919, Final residual = 0.000223514, No Iterations 124
Interface error : -0.0563735 / 42.1835
Interface error : -0.285731 / 53.0018
time step continuity errors : sum local = 6.90247e-07, global = 3.19645e-07, cumulative = 6.77042e-07
PIMPLE: iteration 3
DILUbellerophonPBiCG:  Solving for alpha.water, Initial residual = 5.12577e-07, Final residual = 8.49481e-10, No Iterations 2
Phase-1 volume fraction = 0.666667  Min(alpha.water) = -1.76516e-06  Max(alpha.water) = 1.00008
MULES: Correcting alpha.water
MULES: Correcting alpha.water
MULES: Correcting alpha.water
Phase-1 volume fraction = 0.666667  Min(alpha.water) = -1.76516e-06  Max(alpha.water) = 1.00008
DILUbellerophonPBiCG:  Solving for Ux, Initial residual = 1.32192e-05, Final residual = 9.56515e-09, No Iterations 2
DILUbellerophonPBiCG:  Solving for Uy, Initial residual = 3.79668e-05, Final residual = 2.37013e-09, No Iterations 4
DILUbellerophonPBiCG:  Solving for Uz, Initial residual = 0.00360202, Final residual = 8.06956e-09, No Iterations 5
DILUbellerophonPBiCG:  Solving for p_rgh, Initial residual = 0.00697817, Final residual = 5.49611e-05, No Iterations 119
Interface error : 0.00895618 / 42.2468
Interface error : -0.365014 / 52.9915
time step continuity errors : sum local = 4.11862e-07, global = 2.92897e-07, cumulative = 9.69939e-07
PIMPLE: iteration 4
DILUbellerophonPBiCG:  Solving for alpha.water, Initial residual = 1.33977e-07, Final residual = 2.52895e-10, No Iterations 2
Phase-1 volume fraction = 0.666667  Min(alpha.water) = -2.93938e-10  Max(alpha.water) = 1.0002
MULES: Correcting alpha.water
MULES: Correcting alpha.water
MULES: Correcting alpha.water
Phase-1 volume fraction = 0.666667  Min(alpha.water) = -3.42505e-09  Max(alpha.water) = 1.0002
DILUbellerophonPBiCG:  Solving for Ux, Initial residual = 3.16678e-06, Final residual = 8.20439e-09, No Iterations 2
DILUbellerophonPBiCG:  Solving for Uy, Initial residual = 9.44714e-06, Final residual = 2.07571e-09, No Iterations 3
DILUbellerophonPBiCG:  Solving for Uz, Initial residual = 0.000604795, Final residual = 5.96189e-09, No Iterations 5
DILUbellerophonPBiCG:  Solving for p_rgh, Initial residual = 0.00302844, Final residual = 2.88342e-06, No Iterations 162
Interface error : 0.00620153 / 42.2511
Interface error : -0.359959 / 53.023
time step continuity errors : sum local = 3.20057e-07, global = 3.04873e-07, cumulative = 1.27481e-06
DILUbellerophonPBiCG:  Solving for omega, Initial residual = 1.85389e-05, Final residual = 3.68572e-10, No Iterations 3
DILUbellerophonPBiCG:  Solving for k, Initial residual = 0.000267789, Final residual = 2.36458e-09, No Iterations 5
PIMPLE: not converged within 4 iterations
ExecutionTime = 55.71 s  ClockTime = 56 s

forces forces output:
    sum of forces:
        pressure : (-7022.43 -3396.48 -6.70845e-15)
        viscous  : (177.483 -18.5482 0.129376)
        porous   : (0 0 0)
    sum of moments:
        pressure : (-10519.6 14219.4 3.52694e-13)
        viscous  : (-16.8872 -174.833 10.415)
        porous   : (0 0 0)

forceCoeffs coeffs output:
    Cm    = 0.000501913
    Cd    = -0.329866
    Cl    = -0.164574
    Cl(f) = -0.0817851
    Cl(r) = -0.082789

Courant Number mean: 0.0181799 max: 0.335234
Interface Courant Number mean: 3.78395e-07 max: 0.239351
deltaT = 0.0013525
Time = 0.00252947

PIMPLE: iteration 1
DILUbellerophonPBiCG:  Solving for alpha.water, Initial residual = 1.40007e-06, Final residual = 1.13873e-09, No Iterations 2
Phase-1 volume fraction = 0.666667  Min(alpha.water) = -2.70693e-10  Max(alpha.water) = 1.00036
MULES: Correcting alpha.water
MULES: Correcting alpha.water
MULES: Correcting alpha.water
Phase-1 volume fraction = 0.666667  Min(alpha.water) = -2.70693e-10  Max(alpha.water) = 1.00036
DILUbellerophonPBiCG:  Solving for Ux, Initial residual = 0.00506046, Final residual = 1.63124e-08, No Iterations 4
DILUbellerophonPBiCG:  Solving for Uy, Initial residual = 0.0155946, Final residual = 7.91728e-08, No Iterations 3
DILUbellerophonPBiCG:  Solving for Uz, Initial residual = 0.239719, Final residual = 1.13458e-06, No Iterations 4
DILUbellerophonPBiCG:  Solving for p_rgh, Initial residual = 0.00534292, Final residual = 3.78102e-05, No Iterations 113
Interface error : 0.0188402 / 42.2398
Interface error : -0.273457 / 52.9851
time step continuity errors : sum local = 3.5902e-07, global = 2.44412e-07, cumulative = 1.51922e-06
PIMPLE: iteration 2
DILUbellerophonPBiCG:  Solving for alpha.water, Initial residual = 4.92001e-07, Final residual = 1.99447e-09, No Iterations 2
Phase-1 volume fraction = 0.666667  Min(alpha.water) = -5.92601e-10  Max(alpha.water) = 1.00069
MULES: Correcting alpha.water
MULES: Correcting alpha.water
MULES: Correcting alpha.water
Phase-1 volume fraction = 0.666667  Min(alpha.water) = -7.80099e-10  Max(alpha.water) = 1.00069
DILUbellerophonPBiCG:  Solving for Ux, Initial residual = 7.18532e-05, Final residual = 7.54481e-09, No Iterations 3
DILUbellerophonPBiCG:  Solving for Uy, Initial residual = 0.000179825, Final residual = 1.58192e-09, No Iterations 4
DILUbellerophonPBiCG:  Solving for Uz, Initial residual = 0.00640632, Final residual = 2.97544e-08, No Iterations 5
DILUbellerophonPBiCG:  Solving for p_rgh, Initial residual = 0.00183143, Final residual = 1.57525e-05, No Iterations 117
Interface error : 0.0177103 / 42.2523
Interface error : -0.27375 / 53.0038
time step continuity errors : sum local = 3.27479e-07, global = 2.483e-07, cumulative = 1.76752e-06
PIMPLE: iteration 3
DILUbellerophonPBiCG:  Solving for alpha.water, Initial residual = 3.64436e-07, Final residual = 2.80123e-11, No Iterations 2
Phase-1 volume fraction = 0.666667  Min(alpha.water) = -1.18909e-09  Max(alpha.water) = 1.00066
MULES: Correcting alpha.water
MULES: Correcting alpha.water
MULES: Correcting alpha.water
Phase-1 volume fraction = 0.666667  Min(alpha.water) = -1.18909e-09  Max(alpha.water) = 1.00066
DILUbellerophonPBiCG:  Solving for Ux, Initial residual = 1.53089e-05, Final residual = 6.71586e-10, No Iterations 3
DILUbellerophonPBiCG:  Solving for Uy, Initial residual = 4.2491e-05, Final residual = 6.33309e-10, No Iterations 4
DILUbellerophonPBiCG:  Solving for Uz, Initial residual = 0.00232984, Final residual = 9.02541e-09, No Iterations 5
DILUbellerophonPBiCG:  Solving for p_rgh, Initial residual = 0.00124472, Final residual = 1.21088e-05, No Iterations 110
Interface error : 0.0185599 / 42.2419
Interface error : -0.273759 / 52.9883
time step continuity errors : sum local = 3.22185e-07, global = 2.55372e-07, cumulative = 2.0229e-06
PIMPLE: iteration 4
DILUbellerophonPBiCG:  Solving for alpha.water, Initial residual = 9.8887e-08, Final residual = 1.81103e-11, No Iterations 2
Phase-1 volume fraction = 0.666667  Min(alpha.water) = -2.70594e-10  Max(alpha.water) = 1.00069
MULES: Correcting alpha.water
MULES: Correcting alpha.water
MULES: Correcting alpha.water
Phase-1 volume fraction = 0.666667  Min(alpha.water) = -5.80291e-10  Max(alpha.water) = 1.00069
DILUbellerophonPBiCG:  Solving for Ux, Initial residual = 3.93832e-06, Final residual = 7.03914e-10, No Iterations 3
DILUbellerophonPBiCG:  Solving for Uy, Initial residual = 1.09249e-05, Final residual = 2.62521e-09, No Iterations 3
DILUbellerophonPBiCG:  Solving for Uz, Initial residual = 0.000635026, Final residual = 4.94948e-09, No Iterations 5
DILUbellerophonPBiCG:  Solving for p_rgh, Initial residual = 0.000993096, Final residual = 8.16842e-07, No Iterations 174
Interface error : 0.0177131 / 42.2516
Interface error : -0.273804 / 53.0029
time step continuity errors : sum local = 2.9076e-07, global = 2.53833e-07, cumulative = 2.27673e-06
DILUbellerophonPBiCG:  Solving for omega, Initial residual = 2.14177e-05, Final residual = 5.79111e-10, No Iterations 3
DILUbellerophonPBiCG:  Solving for k, Initial residual = 0.00030803, Final residual = 6.28523e-09, No Iterations 5
PIMPLE: not converged within 4 iterations
ExecutionTime = 79.47 s  ClockTime = 79 s

forces forces output:
    sum of forces:
        pressure : (6909.08 -2447.41 -1.27359e-14)
        viscous  : (176.154 -18.5624 0.536311)
        porous   : (0 0 0)
    sum of moments:
        pressure : (-6262.58 -17206 3.53566e-13)
        viscous  : (-16.8301 -175.859 10.4338)
        porous   : (0 0 0)

forceCoeffs coeffs output:
    Cm    = 0.000502816
    Cd    = 0.341446
    Cl    = -0.118838
    Cl(f) = -0.0589162
    Cl(r) = -0.0599218

Courant Number mean: 0.0208918 max: 0.44822
Interface Courant Number mean: 1.38276e-06 max: 0.358691
deltaT = 0.00150338
Time = 0.00403285

PIMPLE: iteration 1
DILUbellerophonPBiCG:  Solving for alpha.water, Initial residual = 1.52666e-06, Final residual = 1.0062e-09, No Iterations 2
Phase-1 volume fraction = 0.666666  Min(alpha.water) = -2.4692e-10  Max(alpha.water) = 1.00119
MULES: Correcting alpha.water
MULES: Correcting alpha.water
MULES: Correcting alpha.water
Phase-1 volume fraction = 0.666666  Min(alpha.water) = -2.4692e-10  Max(alpha.water) = 1.00119
DILUbellerophonPBiCG:  Solving for Ux, Initial residual = 0.000705827, Final residual = 8.39082e-10, No Iterations 5
DILUbellerophonPBiCG:  Solving for Uy, Initial residual = 0.00352296, Final residual = 2.21498e-08, No Iterations 4
DILUbellerophonPBiCG:  Solving for Uz, Initial residual = 0.0263603, Final residual = 2.49181e-07, No Iterations 4
DILUbellerophonPBiCG:  Solving for p_rgh, Initial residual = 0.00124581, Final residual = 1.13393e-05, No Iterations 102
Interface error : 0.0260659 / 42.2419
Interface error : -0.232947 / 52.9755
time step continuity errors : sum local = 3.22993e-07, global = 2.24079e-07, cumulative = 2.50081e-06
PIMPLE: iteration 2
DILUbellerophonPBiCG:  Solving for alpha.water, Initial residual = 2.44319e-07, Final residual = 2.02872e-09, No Iterations 2
Phase-1 volume fraction = 0.666666  Min(alpha.water) = -2.46871e-10  Max(alpha.water) = 1.00143
MULES: Correcting alpha.water
MULES: Correcting alpha.water
MULES: Correcting alpha.water
Phase-1 volume fraction = 0.666666  Min(alpha.water) = -1.35116e-08  Max(alpha.water) = 1.00143
DILUbellerophonPBiCG:  Solving for Ux, Initial residual = 8.01845e-06, Final residual = 7.94437e-09, No Iterations 3
DILUbellerophonPBiCG:  Solving for Uy, Initial residual = 3.65141e-05, Final residual = 6.15393e-09, No Iterations 3
DILUbellerophonPBiCG:  Solving for Uz, Initial residual = 0.000627344, Final residual = 4.63986e-09, No Iterations 5
DILUbellerophonPBiCG:  Solving for p_rgh, Initial residual = 0.00151918, Final residual = 1.50244e-05, No Iterations 111
Interface error : 0.0259238 / 42.2525
Interface error : -0.2344 / 52.9891
time step continuity errors : sum local = 3.19299e-07, global = 2.24927e-07, cumulative = 2.72574e-06
PIMPLE: iteration 3
DILUbellerophonPBiCG:  Solving for alpha.water, Initial residual = 7.96861e-08, Final residual = 3.55262e-11, No Iterations 2
Phase-1 volume fraction = 0.666666  Min(alpha.water) = -2.4687e-10  Max(alpha.water) = 1.00142
MULES: Correcting alpha.water
MULES: Correcting alpha.water
MULES: Correcting alpha.water
Phase-1 volume fraction = 0.666666  Min(alpha.water) = -4.56268e-10  Max(alpha.water) = 1.00142
DILUbellerophonPBiCG:  Solving for Ux, Initial residual = 1.13926e-06, Final residual = 5.93246e-10, No Iterations 3
DILUbellerophonPBiCG:  Solving for Uy, Initial residual = 4.42644e-06, Final residual = 1.57532e-09, No Iterations 3
DILUbellerophonPBiCG:  Solving for Uz, Initial residual = 0.000154063, Final residual = 5.87794e-09, No Iterations 5
DILUbellerophonPBiCG:  Solving for p_rgh, Initial residual = 0.00140574, Final residual = 9.28044e-06, No Iterations 125
Interface error : 0.0266931 / 42.2425
Interface error : -0.233732 / 52.9762
time step continuity errors : sum local = 3.06912e-07, global = 2.27429e-07, cumulative = 2.95316e-06
PIMPLE: iteration 4
DILUbellerophonPBiCG:  Solving for alpha.water, Initial residual = 7.17432e-08, Final residual = 3.06685e-11, No Iterations 2
Phase-1 volume fraction = 0.666666  Min(alpha.water) = -2.46869e-10  Max(alpha.water) = 1.00145
MULES: Correcting alpha.water
MULES: Correcting alpha.water
MULES: Correcting alpha.water
Phase-1 volume fraction = 0.666666  Min(alpha.water) = -4.60489e-10  Max(alpha.water) = 1.00145
DILUbellerophonPBiCG:  Solving for Ux, Initial residual = 4.2524e-07, Final residual = 2.76319e-09, No Iterations 2
DILUbellerophonPBiCG:  Solving for Uy, Initial residual = 1.63523e-06, Final residual = 1.3712e-09, No Iterations 3
DILUbellerophonPBiCG:  Solving for Uz, Initial residual = 5.90089e-05, Final residual = 2.34737e-09, No Iterations 5
DILUbellerophonPBiCG:  Solving for p_rgh, Initial residual = 0.00147715, Final residual = 1.25473e-06, No Iterations 179
Interface error : 0.0267751 / 42.252
Interface error : -0.235079 / 52.9894
time step continuity errors : sum local = 2.90296e-07, global = 2.30201e-07, cumulative = 3.18336e-06
DILUbellerophonPBiCG:  Solving for omega, Initial residual = 2.40071e-05, Final residual = 9.37952e-10, No Iterations 3
DILUbellerophonPBiCG:  Solving for k, Initial residual = 0.000342378, Final residual = 9.69876e-09, No Iterations 5
PIMPLE: not converged within 4 iterations
ExecutionTime = 103.32 s  ClockTime = 103 s

forces forces output:
    sum of forces:
        pressure : (7803.43 -4544.75 -2.30828e-14)
        viscous  : (174.877 -18.7317 0.786768)
        porous   : (0 0 0)
    sum of moments:
        pressure : (-10241.6 -18753.2 2.53044e-13)
        viscous  : (-16.8699 -176.659 10.4186)
        porous   : (0 0 0)

forceCoeffs coeffs output:
    Cm    = 0.000502086
    Cd    = 0.384484
    Cl    = -0.21992
    Cl(f) = -0.109458
    Cl(r) = -0.110462

Courant Number mean: 0.0232232 max: 0.709759
Interface Courant Number mean: 2.78886e-06 max: 0.437441
deltaT = 0.00105908
Time = 0.00509192

PIMPLE: iteration 1
DILUbellerophonPBiCG:  Solving for alpha.water, Initial residual = 1.07631e-06, Final residual = 3.94574e-10, No Iterations 2
Phase-1 volume fraction = 0.666666  Min(alpha.water) = -2.31217e-10  Max(alpha.water) = 1.00198
MULES: Correcting alpha.water
MULES: Correcting alpha.water
MULES: Correcting alpha.water
Phase-1 volume fraction = 0.666666  Min(alpha.water) = -2.31217e-10  Max(alpha.water) = 1.00198
DILUbellerophonPBiCG:  Solving for Ux, Initial residual = 0.000428498, Final residual = 2.85535e-09, No Iterations 4
DILUbellerophonPBiCG:  Solving for Uy, Initial residual = 0.00197638, Final residual = 2.44808e-09, No Iterations 4
DILUbellerophonPBiCG:  Solving for Uz, Initial residual = 0.00871674, Final residual = 5.97167e-08, No Iterations 4
DILUbellerophonPBiCG:  Solving for p_rgh, Initial residual = 0.00187028, Final residual = 1.74025e-05, No Iterations 109
Interface error : 0.0331482 / 42.2476
Interface error : -0.207878 / 52.9765
time step continuity errors : sum local = 2.04762e-07, global = 1.37485e-07, cumulative = 3.32085e-06
PIMPLE: iteration 2
DILUbellerophonPBiCG:  Solving for alpha.water, Initial residual = 1.36268e-07, Final residual = 1.72725e-10, No Iterations 2
Phase-1 volume fraction = 0.666666  Min(alpha.water) = -2.31194e-10  Max(alpha.water) = 1.00211
MULES: Correcting alpha.water
MULES: Correcting alpha.water
MULES: Correcting alpha.water
Phase-1 volume fraction = 0.666666  Min(alpha.water) = -2.31194e-10  Max(alpha.water) = 1.00211
DILUbellerophonPBiCG:  Solving for Ux, Initial residual = 1.59448e-06, Final residual = 1.01919e-09, No Iterations 2
DILUbellerophonPBiCG:  Solving for Uy, Initial residual = 4.71221e-06, Final residual = 3.72725e-09, No Iterations 2
DILUbellerophonPBiCG:  Solving for Uz, Initial residual = 4.58032e-05, Final residual = 7.94287e-10, No Iterations 5
DILUbellerophonPBiCG:  Solving for p_rgh, Initial residual = 0.000938695, Final residual = 9.085e-06, No Iterations 59
Interface error : 0.0297754 / 42.2471
Interface error : -0.205377 / 52.9782
time step continuity errors : sum local = 1.91756e-07, global = 1.31701e-07, cumulative = 3.45255e-06
PIMPLE: iteration 3
DILUbellerophonPBiCG:  Solving for alpha.water, Initial residual = 6.36936e-08, Final residual = 1.74802e-11, No Iterations 2
Phase-1 volume fraction = 0.666666  Min(alpha.water) = -2.31196e-10  Max(alpha.water) = 1.00204
MULES: Correcting alpha.water
MULES: Correcting alpha.water
MULES: Correcting alpha.water
Phase-1 volume fraction = 0.666666  Min(alpha.water) = -2.31196e-10  Max(alpha.water) = 1.00204
DILUbellerophonPBiCG:  Solving for Ux, Initial residual = 2.8551e-07, Final residual = 4.50622e-10, No Iterations 2
DILUbellerophonPBiCG:  Solving for Uy, Initial residual = 4.53985e-07, Final residual = 1.2606e-09, No Iterations 2
DILUbellerophonPBiCG:  Solving for Uz, Initial residual = 2.9177e-05, Final residual = 1.14818e-09, No Iterations 4
DILUbellerophonPBiCG:  Solving for p_rgh, Initial residual = 0.0005831, Final residual = 5.06576e-06, No Iterations 84
Interface error : 0.0327611 / 42.2478
Interface error : -0.207588 / 52.977
time step continuity errors : sum local = 1.91381e-07, global = 1.35775e-07, cumulative = 3.58833e-06
PIMPLE: iteration 4
DILUbellerophonPBiCG:  Solving for alpha.water, Initial residual = 5.98155e-08, Final residual = 2.13046e-11, No Iterations 2
Phase-1 volume fraction = 0.666666  Min(alpha.water) = -2.31195e-10  Max(alpha.water) = 1.0021
MULES: Correcting alpha.water
MULES: Correcting alpha.water
MULES: Correcting alpha.water
Phase-1 volume fraction = 0.666666  Min(alpha.water) = -2.31195e-10  Max(alpha.water) = 1.0021
DILUbellerophonPBiCG:  Solving for Ux, Initial residual = 7.60623e-08, Final residual = 1.55613e-10, No Iterations 2
DILUbellerophonPBiCG:  Solving for Uy, Initial residual = 2.11915e-07, Final residual = 5.33331e-10, No Iterations 2
DILUbellerophonPBiCG:  Solving for Uz, Initial residual = 8.2305e-06, Final residual = 1.67502e-09, No Iterations 4
DILUbellerophonPBiCG:  Solving for p_rgh, Initial residual = 0.000383909, Final residual = 8.26081e-07, No Iterations 153
Interface error : 0.0327721 / 42.2481
Interface error : -0.207691 / 52.9776
time step continuity errors : sum local = 1.86928e-07, global = 1.35919e-07, cumulative = 3.72424e-06
DILUbellerophonPBiCG:  Solving for omega, Initial residual = 1.65754e-05, Final residual = 8.00878e-09, No Iterations 2
DILUbellerophonPBiCG:  Solving for k, Initial residual = 0.000239915, Final residual = 9.4352e-09, No Iterations 4
PIMPLE: not converged within 4 iterations
ExecutionTime = 123.95 s  ClockTime = 124 s

forces forces output:
    sum of forces:
        pressure : (7712.09 -4488.58 -2.47668e-14)
        viscous  : (174.691 -18.8237 0.447195)
        porous   : (0 0 0)
    sum of moments:
        pressure : (-10067.8 -18479.4 1.01991e-13)
        viscous  : (-16.8736 -176.818 10.3868)
        porous   : (0 0 0)

forceCoeffs coeffs output:
    Cm    = 0.00050055
    Cd    = 0.380073
    Cl    = -0.217217
    Cl(f) = -0.108108
    Cl(r) = -0.109109

Courant Number mean: 0.0163599 max: 0.497593
Interface Courant Number mean: 2.78595e-06 max: 0.311118
deltaT = 0.0010642
Time = 0.00615612

PIMPLE: iteration 1
DILUbellerophonPBiCG:  Solving for alpha.water, Initial residual = 1.08384e-06, Final residual = 3.5245e-10, No Iterations 2
Phase-1 volume fraction = 0.666666  Min(alpha.water) = -2.1645e-10  Max(alpha.water) = 1.00274
MULES: Correcting alpha.water
MULES: Correcting alpha.water
MULES: Correcting alpha.water
Phase-1 volume fraction = 0.666666  Min(alpha.water) = -2.1645e-10  Max(alpha.water) = 1.00274
DILUbellerophonPBiCG:  Solving for Ux, Initial residual = 0.000434783, Final residual = 2.25863e-09, No Iterations 4
DILUbellerophonPBiCG:  Solving for Uy, Initial residual = 0.00197321, Final residual = 2.02308e-09, No Iterations 4
DILUbellerophonPBiCG:  Solving for Uz, Initial residual = 0.00730334, Final residual = 1.41684e-08, No Iterations 4
DILUbellerophonPBiCG:  Solving for p_rgh, Initial residual = 0.000566875, Final residual = 4.31295e-06, No Iterations 102
Interface error : 0.0376748 / 42.2441
Interface error : -0.194425 / 52.9677
time step continuity errors : sum local = 1.85448e-07, global = 1.20592e-07, cumulative = 3.84484e-06
PIMPLE: iteration 2
DILUbellerophonPBiCG:  Solving for alpha.water, Initial residual = 1.27981e-07, Final residual = 5.74921e-11, No Iterations 2
Phase-1 volume fraction = 0.666666  Min(alpha.water) = -2.16437e-10  Max(alpha.water) = 1.00285
MULES: Correcting alpha.water
MULES: Correcting alpha.water
MULES: Correcting alpha.water
Phase-1 volume fraction = 0.666666  Min(alpha.water) = -2.16437e-10  Max(alpha.water) = 1.00285
DILUbellerophonPBiCG:  Solving for Ux, Initial residual = 1.94718e-06, Final residual = 1.29503e-09, No Iterations 3
DILUbellerophonPBiCG:  Solving for Uy, Initial residual = 7.19301e-06, Final residual = 6.54365e-10, No Iterations 3
DILUbellerophonPBiCG:  Solving for Uz, Initial residual = 6.34829e-05, Final residual = 6.83756e-09, No Iterations 3
DILUbellerophonPBiCG:  Solving for p_rgh, Initial residual = 0.000276714, Final residual = 2.10203e-06, No Iterations 115
Interface error : 0.0379341 / 42.2443
Interface error : -0.194684 / 52.9681
time step continuity errors : sum local = 1.82675e-07, global = 1.22624e-07, cumulative = 3.96746e-06
PIMPLE: iteration 3
DILUbellerophonPBiCG:  Solving for alpha.water, Initial residual = 7.21876e-08, Final residual = 2.12426e-11, No Iterations 2
Phase-1 volume fraction = 0.666666  Min(alpha.water) = -2.16438e-10  Max(alpha.water) = 1.00285
MULES: Correcting alpha.water
MULES: Correcting alpha.water
MULES: Correcting alpha.water
Phase-1 volume fraction = 0.666666  Min(alpha.water) = -2.16438e-10  Max(alpha.water) = 1.00285
DILUbellerophonPBiCG:  Solving for Ux, Initial residual = 3.06953e-07, Final residual = 1.93853e-10, No Iterations 2
DILUbellerophonPBiCG:  Solving for Uy, Initial residual = 4.60537e-07, Final residual = 1.82572e-09, No Iterations 2
DILUbellerophonPBiCG:  Solving for Uz, Initial residual = 2.9173e-05, Final residual = 4.19612e-09, No Iterations 3
DILUbellerophonPBiCG:  Solving for p_rgh, Initial residual = 0.000169988, Final residual = 1.01827e-06, No Iterations 117
Interface error : 0.0379857 / 42.2441
Interface error : -0.194688 / 52.9679
time step continuity errors : sum local = 1.81766e-07, global = 1.22462e-07, cumulative = 4.08992e-06
PIMPLE: iteration 4
DILUbellerophonPBiCG:  Solving for alpha.water, Initial residual = 6.86716e-08, Final residual = 2.08881e-11, No Iterations 2
Phase-1 volume fraction = 0.666666  Min(alpha.water) = -2.16438e-10  Max(alpha.water) = 1.00285
MULES: Correcting alpha.water
MULES: Correcting alpha.water
MULES: Correcting alpha.water
Phase-1 volume fraction = 0.666666  Min(alpha.water) = -2.16438e-10  Max(alpha.water) = 1.00285
DILUbellerophonPBiCG:  Solving for Ux, Initial residual = 4.51191e-08, Final residual = 9.08616e-11, No Iterations 2
DILUbellerophonPBiCG:  Solving for Uy, Initial residual = 1.30918e-07, Final residual = 2.60987e-10, No Iterations 2
DILUbellerophonPBiCG:  Solving for Uz, Initial residual = 6.09375e-06, Final residual = 1.34522e-09, No Iterations 3
DILUbellerophonPBiCG:  Solving for p_rgh, Initial residual = 0.000115702, Final residual = 9.44779e-07, No Iterations 93
Interface error : 0.0379537 / 42.2443
Interface error : -0.194691 / 52.968
time step continuity errors : sum local = 1.81645e-07, global = 1.22408e-07, cumulative = 4.21233e-06
DILUbellerophonPBiCG:  Solving for omega, Initial residual = 1.64481e-05, Final residual = 7.31872e-09, No Iterations 2
DILUbellerophonPBiCG:  Solving for k, Initial residual = 0.000240493, Final residual = 6.68018e-09, No Iterations 4
PIMPLE: not converged within 4 iterations
ExecutionTime = 145.02 s  ClockTime = 145 s

forces forces output:
    sum of forces:
        pressure : (8087.5 -5224.57 -2.87106e-14)
        viscous  : (174.528 -18.9491 0.153603)
        porous   : (0 0 0)
    sum of moments:
        pressure : (-11471.9 -19147.2 1.63429e-13)
        viscous  : (-16.903 -176.866 10.3552)
        porous   : (0 0 0)

forceCoeffs coeffs output:
    Cm    = 0.000499028
    Cd    = 0.398156
    Cl    = -0.252691
    Cl(f) = -0.125847
    Cl(r) = -0.126845

Courant Number mean: 0.0164388 max: 0.488056
Interface Courant Number mean: 3.50541e-06 max: 0.316595
deltaT = 0.00109024
Time = 0.00724637

PIMPLE: iteration 1
DILUbellerophonPBiCG:  Solving for alpha.water, Initial residual = 1.1159e-06, Final residual = 3.44286e-10, No Iterations 2
Phase-1 volume fraction = 0.666665  Min(alpha.water) = -2.02306e-10  Max(alpha.water) = 1.00361
MULES: Correcting alpha.water
MULES: Correcting alpha.water
MULES: Correcting alpha.water
Phase-1 volume fraction = 0.666665  Min(alpha.water) = -2.02306e-10  Max(alpha.water) = 1.00361
DILUbellerophonPBiCG:  Solving for Ux, Initial residual = 0.000428702, Final residual = 2.42586e-09, No Iterations 4
DILUbellerophonPBiCG:  Solving for Uy, Initial residual = 0.00191611, Final residual = 2.52357e-09, No Iterations 4
DILUbellerophonPBiCG:  Solving for Uz, Initial residual = 0.00546657, Final residual = 1.18338e-08, No Iterations 4
DILUbellerophonPBiCG:  Solving for p_rgh, Initial residual = 0.000428655, Final residual = 3.34534e-06, No Iterations 105
Interface error : 0.0425051 / 42.2403
Interface error : -0.189911 / 52.9603
time step continuity errors : sum local = 1.88311e-07, global = 1.16757e-07, cumulative = 4.32909e-06
PIMPLE: iteration 2
DILUbellerophonPBiCG:  Solving for alpha.water, Initial residual = 1.31424e-07, Final residual = 3.01915e-11, No Iterations 2
Phase-1 volume fraction = 0.666665  Min(alpha.water) = -2.023e-10  Max(alpha.water) = 1.00371
MULES: Correcting alpha.water
MULES: Correcting alpha.water
MULES: Correcting alpha.water
Phase-1 volume fraction = 0.666665  Min(alpha.water) = -2.023e-10  Max(alpha.water) = 1.00371
DILUbellerophonPBiCG:  Solving for Ux, Initial residual = 1.68284e-06, Final residual = 5.62238e-10, No Iterations 3
DILUbellerophonPBiCG:  Solving for Uy, Initial residual = 5.85023e-06, Final residual = 4.03683e-10, No Iterations 3
DILUbellerophonPBiCG:  Solving for Uz, Initial residual = 4.12456e-05, Final residual = 4.50717e-09, No Iterations 3
DILUbellerophonPBiCG:  Solving for p_rgh, Initial residual = 0.000123173, Final residual = 1.12279e-06, No Iterations 110
Interface error : 0.0426776 / 42.2404
Interface error : -0.190058 / 52.9604
time step continuity errors : sum local = 1.86277e-07, global = 1.18222e-07, cumulative = 4.44731e-06
PIMPLE: iteration 3
DILUbellerophonPBiCG:  Solving for alpha.water, Initial residual = 8.44526e-08, Final residual = 2.51057e-11, No Iterations 2
Phase-1 volume fraction = 0.666665  Min(alpha.water) = -2.023e-10  Max(alpha.water) = 1.00371
MULES: Correcting alpha.water
MULES: Correcting alpha.water
MULES: Correcting alpha.water
Phase-1 volume fraction = 0.666665  Min(alpha.water) = -2.023e-10  Max(alpha.water) = 1.00371
DILUbellerophonPBiCG:  Solving for Ux, Initial residual = 2.74507e-07, Final residual = 1.98633e-10, No Iterations 2
DILUbellerophonPBiCG:  Solving for Uy, Initial residual = 3.30904e-07, Final residual = 1.06736e-09, No Iterations 2
DILUbellerophonPBiCG:  Solving for Uz, Initial residual = 2.6139e-05, Final residual = 3.39234e-09, No Iterations 3
DILUbellerophonPBiCG:  Solving for p_rgh, Initial residual = 6.68548e-05, Final residual = 6.8342e-07, No Iterations 111
Interface error : 0.0426884 / 42.2403
Interface error : -0.190061 / 52.9603
time step continuity errors : sum local = 1.85858e-07, global = 1.18036e-07, cumulative = 4.56534e-06
PIMPLE: iteration 4
DILUbellerophonPBiCG:  Solving for alpha.water, Initial residual = 8.17504e-08, Final residual = 2.49177e-11, No Iterations 2
Phase-1 volume fraction = 0.666665  Min(alpha.water) = -2.023e-10  Max(alpha.water) = 1.00371
MULES: Correcting alpha.water
MULES: Correcting alpha.water
MULES: Correcting alpha.water
Phase-1 volume fraction = 0.666665  Min(alpha.water) = -2.023e-10  Max(alpha.water) = 1.00371
DILUbellerophonPBiCG:  Solving for Ux, Initial residual = 3.48151e-08, Final residual = 7.46828e-11, No Iterations 2
DILUbellerophonPBiCG:  Solving for Uy, Initial residual = 9.57681e-08, Final residual = 2.24805e-10, No Iterations 2
DILUbellerophonPBiCG:  Solving for Uz, Initial residual = 5.39672e-06, Final residual = 1.17661e-09, No Iterations 3
DILUbellerophonPBiCG:  Solving for p_rgh, Initial residual = 4.47892e-05, Final residual = 8.56216e-07, No Iterations 78
Interface error : 0.0426702 / 42.2404
Interface error : -0.19005 / 52.9603
time step continuity errors : sum local = 1.86e-07, global = 1.18007e-07, cumulative = 4.68335e-06
DILUbellerophonPBiCG:  Solving for omega, Initial residual = 1.66545e-05, Final residual = 6.97323e-09, No Iterations 2
DILUbellerophonPBiCG:  Solving for k, Initial residual = 0.000245925, Final residual = 6.35914e-09, No Iterations 4
PIMPLE: not converged within 4 iterations
ExecutionTime = 165.51 s  ClockTime = 166 s

forces forces output:
    sum of forces:
        pressure : (8334.13 -5664.33 -3.09728e-14)
        viscous  : (174.357 -19.0879 -0.10574)
        porous   : (0 0 0)
    sum of moments:
        pressure : (-12315.1 -19609.5 1.93338e-13)
        viscous  : (-16.9522 -176.881 10.3269)
        porous   : (0 0 0)

forceCoeffs coeffs output:
    Cm    = 0.000497663
    Cd    = 0.410034
    Cl    = -0.27389
    Cl(f) = -0.136447
    Cl(r) = -0.137443

Courant Number mean: 0.0168407 max: 0.491356
Interface Courant Number mean: 4.14921e-06 max: 0.329214
deltaT = 0.00110942
Time = 0.00835579

PIMPLE: iteration 1
DILUbellerophonPBiCG:  Solving for alpha.water, Initial residual = 1.14405e-06, Final residual = 3.42689e-10, No Iterations 2
Phase-1 volume fraction = 0.666665  Min(alpha.water) = -1.88869e-10  Max(alpha.water) = 1.00457
MULES: Correcting alpha.water
MULES: Correcting alpha.water
MULES: Correcting alpha.water
Phase-1 volume fraction = 0.666665  Min(alpha.water) = -2.26157e-10  Max(alpha.water) = 1.00457
DILUbellerophonPBiCG:  Solving for Ux, Initial residual = 0.000425168, Final residual = 2.57424e-09, No Iterations 4
DILUbellerophonPBiCG:  Solving for Uy, Initial residual = 0.00188926, Final residual = 2.71891e-09, No Iterations 4
DILUbellerophonPBiCG:  Solving for Uz, Initial residual = 0.00449752, Final residual = 1.02695e-08, No Iterations 4
DILUbellerophonPBiCG:  Solving for p_rgh, Initial residual = 0.000418106, Final residual = 2.65489e-06, No Iterations 108
Interface error : 0.0471045 / 42.2365
Interface error : -0.189476 / 52.9532
time step continuity errors : sum local = 1.94007e-07, global = 1.15442e-07, cumulative = 4.79879e-06
PIMPLE: iteration 2
DILUbellerophonPBiCG:  Solving for alpha.water, Initial residual = 1.37282e-07, Final residual = 2.97414e-11, No Iterations 2
Phase-1 volume fraction = 0.666665  Min(alpha.water) = -1.88866e-10  Max(alpha.water) = 1.00466
MULES: Correcting alpha.water
MULES: Correcting alpha.water
MULES: Correcting alpha.water
Phase-1 volume fraction = 0.666665  Min(alpha.water) = -2.63508e-10  Max(alpha.water) = 1.00466
DILUbellerophonPBiCG:  Solving for Ux, Initial residual = 1.48607e-06, Final residual = 1.34017e-10, No Iterations 3
DILUbellerophonPBiCG:  Solving for Uy, Initial residual = 4.76254e-06, Final residual = 8.09414e-10, No Iterations 3
DILUbellerophonPBiCG:  Solving for Uz, Initial residual = 2.71857e-05, Final residual = 2.88646e-09, No Iterations 3
DILUbellerophonPBiCG:  Solving for p_rgh, Initial residual = 7.88068e-05, Final residual = 6.46954e-07, No Iterations 110
Interface error : 0.0471779 / 42.2365
Interface error : -0.189524 / 52.9532
time step continuity errors : sum local = 1.92263e-07, global = 1.16229e-07, cumulative = 4.91502e-06
PIMPLE: iteration 3
DILUbellerophonPBiCG:  Solving for alpha.water, Initial residual = 9.58702e-08, Final residual = 2.88426e-11, No Iterations 2
Phase-1 volume fraction = 0.666665  Min(alpha.water) = -1.88866e-10  Max(alpha.water) = 1.00466
MULES: Correcting alpha.water
MULES: Correcting alpha.water
MULES: Correcting alpha.water
Phase-1 volume fraction = 0.666665  Min(alpha.water) = -2.6475e-10  Max(alpha.water) = 1.00466
DILUbellerophonPBiCG:  Solving for Ux, Initial residual = 2.44154e-07, Final residual = 6.41093e-10, No Iterations 2
DILUbellerophonPBiCG:  Solving for Uy, Initial residual = 2.33833e-07, Final residual = 3.93494e-10, No Iterations 2
DILUbellerophonPBiCG:  Solving for Uz, Initial residual = 2.29287e-05, Final residual = 2.94087e-09, No Iterations 3
DILUbellerophonPBiCG:  Solving for p_rgh, Initial residual = 3.35696e-05, Final residual = 7.9191e-07, No Iterations 99
Interface error : 0.0471757 / 42.2365
Interface error : -0.189521 / 52.9532
time step continuity errors : sum local = 1.92338e-07, global = 1.1606e-07, cumulative = 5.03108e-06
PIMPLE: iteration 4
DILUbellerophonPBiCG:  Solving for alpha.water, Initial residual = 9.36127e-08, Final residual = 2.88079e-11, No Iterations 2
Phase-1 volume fraction = 0.666665  Min(alpha.water) = -1.88866e-10  Max(alpha.water) = 1.00466
MULES: Correcting alpha.water
MULES: Correcting alpha.water
MULES: Correcting alpha.water
Phase-1 volume fraction = 0.666665  Min(alpha.water) = -2.65182e-10  Max(alpha.water) = 1.00466
DILUbellerophonPBiCG:  Solving for Ux, Initial residual = 2.91499e-08, Final residual = 7.02035e-11, No Iterations 2
DILUbellerophonPBiCG:  Solving for Uy, Initial residual = 7.31974e-08, Final residual = 1.33431e-10, No Iterations 2
DILUbellerophonPBiCG:  Solving for Uz, Initial residual = 4.77681e-06, Final residual = 1.02299e-09, No Iterations 3
DILUbellerophonPBiCG:  Solving for p_rgh, Initial residual = 2.10928e-05, Final residual = 8.2367e-07, No Iterations 42
Interface error : 0.0471605 / 42.2365
Interface error : -0.189516 / 52.9532
time step continuity errors : sum local = 1.92322e-07, global = 1.15999e-07, cumulative = 5.14708e-06
DILUbellerophonPBiCG:  Solving for omega, Initial residual = 1.67683e-05, Final residual = 6.65245e-09, No Iterations 2
DILUbellerophonPBiCG:  Solving for k, Initial residual = 0.000249842, Final residual = 6.28614e-09, No Iterations 4
PIMPLE: not converged within 4 iterations
ExecutionTime = 184.54 s  ClockTime = 185 s

forces forces output:
    sum of forces:
        pressure : (8496.14 -5871.44 -3.19373e-14)
        viscous  : (174.178 -19.2291 -0.347707)
        porous   : (0 0 0)
    sum of moments:
        pressure : (-12733.4 -19921.8 8.27164e-14)
        viscous  : (-17.0148 -176.885 10.3011)
        porous   : (0 0 0)

forceCoeffs coeffs output:
    Cm    = 0.000496423
    Cd    = 0.417832
    Cl    = -0.283878
    Cl(f) = -0.141443
    Cl(r) = -0.142435

Courant Number mean: 0.0171367 max: 0.491592
Interface Courant Number mean: 4.73511e-06 max: 0.352236
deltaT = 0.0011284
Time = 0.00948419

PIMPLE: iteration 1
DILUbellerophonPBiCG:  Solving for alpha.water, Initial residual = 1.17472e-06, Final residual = 3.47143e-10, No Iterations 2
Phase-1 volume fraction = 0.666665  Min(alpha.water) = -1.76124e-10  Max(alpha.water) = 1.00562
MULES: Correcting alpha.water
MULES: Correcting alpha.water
MULES: Correcting alpha.water
Phase-1 volume fraction = 0.666665  Min(alpha.water) = -3.19727e-10  Max(alpha.water) = 1.00562
DILUbellerophonPBiCG:  Solving for Ux, Initial residual = 0.000425071, Final residual = 2.72533e-09, No Iterations 4
DILUbellerophonPBiCG:  Solving for Uy, Initial residual = 0.00188631, Final residual = 2.96102e-09, No Iterations 4
DILUbellerophonPBiCG:  Solving for Uz, Initial residual = 0.00396376, Final residual = 9.83004e-09, No Iterations 4
DILUbellerophonPBiCG:  Solving for p_rgh, Initial residual = 0.000431088, Final residual = 2.97014e-06, No Iterations 108
Interface error : 0.0515272 / 42.2326
Interface error : -0.191341 / 52.9466
time step continuity errors : sum local = 2.02585e-07, global = 1.15587e-07, cumulative = 5.26267e-06
PIMPLE: iteration 2
DILUbellerophonPBiCG:  Solving for alpha.water, Initial residual = 1.47396e-07, Final residual = 4.06127e-11, No Iterations 2
Phase-1 volume fraction = 0.666665  Min(alpha.water) = -1.76122e-10  Max(alpha.water) = 1.00571
MULES: Correcting alpha.water
MULES: Correcting alpha.water
MULES: Correcting alpha.water
Phase-1 volume fraction = 0.666665  Min(alpha.water) = -3.64555e-10  Max(alpha.water) = 1.00571
DILUbellerophonPBiCG:  Solving for Ux, Initial residual = 1.41462e-06, Final residual = 1.02854e-10, No Iterations 3
DILUbellerophonPBiCG:  Solving for Uy, Initial residual = 4.32703e-06, Final residual = 9.05889e-10, No Iterations 3
DILUbellerophonPBiCG:  Solving for Uz, Initial residual = 2.09113e-05, Final residual = 2.19079e-09, No Iterations 3
DILUbellerophonPBiCG:  Solving for p_rgh, Initial residual = 6.44815e-05, Final residual = 7.21138e-07, No Iterations 111
Interface error : 0.0515533 / 42.2326
Interface error : -0.191352 / 52.9466
time step continuity errors : sum local = 2.0066e-07, global = 1.16138e-07, cumulative = 5.37881e-06
PIMPLE: iteration 3
DILUbellerophonPBiCG:  Solving for alpha.water, Initial residual = 1.09617e-07, Final residual = 3.45666e-11, No Iterations 2
Phase-1 volume fraction = 0.666665  Min(alpha.water) = -1.76122e-10  Max(alpha.water) = 1.00571
MULES: Correcting alpha.water
MULES: Correcting alpha.water
MULES: Correcting alpha.water
Phase-1 volume fraction = 0.666665  Min(alpha.water) = -3.63054e-10  Max(alpha.water) = 1.00571
DILUbellerophonPBiCG:  Solving for Ux, Initial residual = 2.27692e-07, Final residual = 3.34077e-10, No Iterations 2
DILUbellerophonPBiCG:  Solving for Uy, Initial residual = 1.93564e-07, Final residual = 3.16849e-10, No Iterations 2
DILUbellerophonPBiCG:  Solving for Uz, Initial residual = 2.05599e-05, Final residual = 2.7482e-09, No Iterations 3
DILUbellerophonPBiCG:  Solving for p_rgh, Initial residual = 2.31924e-05, Final residual = 7.63522e-07, No Iterations 83
Interface error : 0.0515556 / 42.2326
Interface error : -0.191355 / 52.9466
time step continuity errors : sum local = 2.00713e-07, global = 1.15987e-07, cumulative = 5.4948e-06
PIMPLE: iteration 4
DILUbellerophonPBiCG:  Solving for alpha.water, Initial residual = 1.076e-07, Final residual = 3.4587e-11, No Iterations 2
Phase-1 volume fraction = 0.666665  Min(alpha.water) = -1.76122e-10  Max(alpha.water) = 1.00571
MULES: Correcting alpha.water
MULES: Correcting alpha.water
MULES: Correcting alpha.water
Phase-1 volume fraction = 0.666665  Min(alpha.water) = -3.6307e-10  Max(alpha.water) = 1.00571
DILUbellerophonPBiCG:  Solving for Ux, Initial residual = 2.65177e-08, Final residual = 6.69595e-09, No Iterations 1
DILUbellerophonPBiCG:  Solving for Uy, Initial residual = 6.47626e-08, Final residual = 1.53845e-10, No Iterations 2
DILUbellerophonPBiCG:  Solving for Uz, Initial residual = 4.35939e-06, Final residual = 1.02256e-09, No Iterations 3
DILUbellerophonPBiCG:  Solving for p_rgh, Initial residual = 1.41538e-05, Final residual = 4.15442e-07, No Iterations 41
Interface error : 0.0515518 / 42.2326
Interface error : -0.191358 / 52.9466
time step continuity errors : sum local = 2.00397e-07, global = 1.1595e-07, cumulative = 5.61075e-06
DILUbellerophonPBiCG:  Solving for omega, Initial residual = 1.68856e-05, Final residual = 6.32004e-09, No Iterations 2
DILUbellerophonPBiCG:  Solving for k, Initial residual = 0.000253701, Final residual = 6.5271e-09, No Iterations 4
PIMPLE: not converged within 4 iterations
ExecutionTime = 204.11 s  ClockTime = 204 s

forces forces output:
    sum of forces:
        pressure : (8623.12 -5980.64 -3.21909e-14)
        viscous  : (173.992 -19.3702 -0.580402)
        porous   : (0 0 0)
    sum of moments:
        pressure : (-12964.3 -20171 2.09253e-13)
        viscous  : (-17.0853 -176.885 10.2781)
        porous   : (0 0 0)

forceCoeffs coeffs output:
    Cm    = 0.000495314
    Cd    = 0.423943
    Cl    = -0.289147
    Cl(f) = -0.144078
    Cl(r) = -0.145069

Courant Number mean: 0.0174295 max: 0.491828
Interface Courant Number mean: 5.31544e-06 max: 0.374362
deltaT = 0.00114715
Time = 0.0106313

PIMPLE: iteration 1
DILUbellerophonPBiCG:  Solving for alpha.water, Initial residual = 1.20761e-06, Final residual = 3.5561e-10, No Iterations 2
Phase-1 volume fraction = 0.666664  Min(alpha.water) = -1.64053e-10  Max(alpha.water) = 1.00676
MULES: Correcting alpha.water
MULES: Correcting alpha.water
MULES: Correcting alpha.water
Phase-1 volume fraction = 0.666664  Min(alpha.water) = -4.10561e-10  Max(alpha.water) = 1.00676
DILUbellerophonPBiCG:  Solving for Ux, Initial residual = 0.00042623, Final residual = 2.88453e-09, No Iterations 4
DILUbellerophonPBiCG:  Solving for Uy, Initial residual = 0.00189129, Final residual = 3.227e-09, No Iterations 4
DILUbellerophonPBiCG:  Solving for Uz, Initial residual = 0.00360007, Final residual = 9.82853e-09, No Iterations 4
DILUbellerophonPBiCG:  Solving for p_rgh, Initial residual = 0.0004513, Final residual = 4.24507e-06, No Iterations 64
Interface error : 0.0557701 / 42.2286
Interface error : -0.19442 / 52.9401
time step continuity errors : sum local = 2.1307e-07, global = 1.1573e-07, cumulative = 5.72648e-06
PIMPLE: iteration 2
DILUbellerophonPBiCG:  Solving for alpha.water, Initial residual = 1.594e-07, Final residual = 5.14649e-11, No Iterations 2
Phase-1 volume fraction = 0.666664  Min(alpha.water) = -1.64052e-10  Max(alpha.water) = 1.00686
MULES: Correcting alpha.water
MULES: Correcting alpha.water
MULES: Correcting alpha.water
Phase-1 volume fraction = 0.666664  Min(alpha.water) = -4.45075e-10  Max(alpha.water) = 1.00686
DILUbellerophonPBiCG:  Solving for Ux, Initial residual = 1.38495e-06, Final residual = 9.05213e-11, No Iterations 3
DILUbellerophonPBiCG:  Solving for Uy, Initial residual = 4.13089e-06, Final residual = 2.13582e-09, No Iterations 3
DILUbellerophonPBiCG:  Solving for Uz, Initial residual = 1.71982e-05, Final residual = 2.06001e-09, No Iterations 3
DILUbellerophonPBiCG:  Solving for p_rgh, Initial residual = 5.81605e-05, Final residual = 5.09438e-07, No Iterations 109
Interface error : 0.0558735 / 42.2286
Interface error : -0.194493 / 52.94
time step continuity errors : sum local = 2.10063e-07, global = 1.17081e-07, cumulative = 5.84356e-06
PIMPLE: iteration 3
DILUbellerophonPBiCG:  Solving for alpha.water, Initial residual = 1.2572e-07, Final residual = 4.12979e-11, No Iterations 2
Phase-1 volume fraction = 0.666664  Min(alpha.water) = -1.64052e-10  Max(alpha.water) = 1.00686
MULES: Correcting alpha.water
MULES: Correcting alpha.water
MULES: Correcting alpha.water
Phase-1 volume fraction = 0.666664  Min(alpha.water) = -4.41992e-10  Max(alpha.water) = 1.00686
DILUbellerophonPBiCG:  Solving for Ux, Initial residual = 2.12929e-07, Final residual = 2.06687e-10, No Iterations 2
DILUbellerophonPBiCG:  Solving for Uy, Initial residual = 1.95985e-07, Final residual = 4.51599e-10, No Iterations 2
DILUbellerophonPBiCG:  Solving for Uz, Initial residual = 1.97806e-05, Final residual = 3.00408e-09, No Iterations 3
DILUbellerophonPBiCG:  Solving for p_rgh, Initial residual = 1.87441e-05, Final residual = 8.34446e-07, No Iterations 44
Interface error : 0.055887 / 42.2286
Interface error : -0.194504 / 52.94
time step continuity errors : sum local = 2.10265e-07, global = 1.17099e-07, cumulative = 5.96066e-06
PIMPLE: iteration 4
DILUbellerophonPBiCG:  Solving for alpha.water, Initial residual = 1.23372e-07, Final residual = 4.1073e-11, No Iterations 2
Phase-1 volume fraction = 0.666664  Min(alpha.water) = -1.64052e-10  Max(alpha.water) = 1.00686
MULES: Correcting alpha.water
MULES: Correcting alpha.water
MULES: Correcting alpha.water
Phase-1 volume fraction = 0.666664  Min(alpha.water) = -4.41746e-10  Max(alpha.water) = 1.00686
DILUbellerophonPBiCG:  Solving for Ux, Initial residual = 2.65087e-08, Final residual = 7.38466e-11, No Iterations 2
DILUbellerophonPBiCG:  Solving for Uy, Initial residual = 6.89768e-08, Final residual = 1.7663e-10, No Iterations 2
DILUbellerophonPBiCG:  Solving for Uz, Initial residual = 4.26634e-06, Final residual = 1.25305e-09, No Iterations 3
DILUbellerophonPBiCG:  Solving for p_rgh, Initial residual = 1.00693e-05, Final residual = 8.75196e-07, No Iterations 21
Interface error : 0.0558874 / 42.2286
Interface error : -0.19451 / 52.94
time step continuity errors : sum local = 2.10338e-07, global = 1.17034e-07, cumulative = 6.07769e-06
DILUbellerophonPBiCG:  Solving for omega, Initial residual = 1.70116e-05, Final residual = 6.0184e-09, No Iterations 2
DILUbellerophonPBiCG:  Solving for k, Initial residual = 0.000257509, Final residual = 6.97787e-09, No Iterations 4
PIMPLE: not converged within 4 iterations
ExecutionTime = 220.23 s  ClockTime = 220 s

forces forces output:
    sum of forces:
        pressure : (8718.99 -6040.77 -3.19594e-14)
        viscous  : (173.802 -19.5115 -0.81017)
        porous   : (0 0 0)
    sum of moments:
        pressure : (-13098.2 -20364.1 1.66923e-13)
        viscous  : (-17.1633 -176.882 10.257)
        porous   : (0 0 0)

forceCoeffs coeffs output:
    Cm    = 0.000494294
    Cd    = 0.428554
    Cl    = -0.292052
    Cl(f) = -0.145532
    Cl(r) = -0.14652

Courant Number mean: 0.017719 max: 0.488665
Interface Courant Number mean: 6.04094e-06 max: 0.394853
deltaT = 0.00117376
Time = 0.0118051

PIMPLE: iteration 1
DILUbellerophonPBiCG:  Solving for alpha.water, Initial residual = 1.25148e-06, Final residual = 3.7206e-10, No Iterations 2
Phase-1 volume fraction = 0.666664  Min(alpha.water) = -1.52567e-10  Max(alpha.water) = 1.00801
MULES: Correcting alpha.water
MULES: Correcting alpha.water
MULES: Correcting alpha.water
Phase-1 volume fraction = 0.666664  Min(alpha.water) = -5.41172e-10  Max(alpha.water) = 1.00801
DILUbellerophonPBiCG:  Solving for Ux, Initial residual = 0.000431054, Final residual = 3.12494e-09, No Iterations 4
DILUbellerophonPBiCG:  Solving for Uy, Initial residual = 0.00191385, Final residual = 3.65099e-09, No Iterations 4
DILUbellerophonPBiCG:  Solving for Uz, Initial residual = 0.00334344, Final residual = 1.0101e-08, No Iterations 4
DILUbellerophonPBiCG:  Solving for p_rgh, Initial residual = 0.000474553, Final residual = 3.76568e-06, No Iterations 64
Interface error : 0.06013 / 42.2246
Interface error : -0.198606 / 52.9338
time step continuity errors : sum local = 2.24978e-07, global = 1.18565e-07, cumulative = 6.19626e-06
PIMPLE: iteration 2
DILUbellerophonPBiCG:  Solving for alpha.water, Initial residual = 1.74299e-07, Final residual = 6.67705e-11, No Iterations 2
Phase-1 volume fraction = 0.666664  Min(alpha.water) = -1.52566e-10  Max(alpha.water) = 1.0081
MULES: Correcting alpha.water
MULES: Correcting alpha.water
MULES: Correcting alpha.water
Phase-1 volume fraction = 0.666664  Min(alpha.water) = -8.41933e-10  Max(alpha.water) = 1.0081
DILUbellerophonPBiCG:  Solving for Ux, Initial residual = 1.40905e-06, Final residual = 1.20858e-10, No Iterations 3
DILUbellerophonPBiCG:  Solving for Uy, Initial residual = 4.16591e-06, Final residual = 2.41782e-09, No Iterations 3
DILUbellerophonPBiCG:  Solving for Uz, Initial residual = 1.49767e-05, Final residual = 1.83814e-09, No Iterations 3
DILUbellerophonPBiCG:  Solving for p_rgh, Initial residual = 5.87103e-05, Final residual = 9.1361e-07, No Iterations 107
Interface error : 0.0602087 / 42.2246
Interface error : -0.198666 / 52.9337
time step continuity errors : sum local = 2.22518e-07, global = 1.19669e-07, cumulative = 6.31592e-06
PIMPLE: iteration 3
DILUbellerophonPBiCG:  Solving for alpha.water, Initial residual = 1.44026e-07, Final residual = 5.18629e-11, No Iterations 2
Phase-1 volume fraction = 0.666664  Min(alpha.water) = -1.52566e-10  Max(alpha.water) = 1.00811
MULES: Correcting alpha.water
MULES: Correcting alpha.water
MULES: Correcting alpha.water
Phase-1 volume fraction = 0.666664  Min(alpha.water) = -8.71254e-10  Max(alpha.water) = 1.00811
DILUbellerophonPBiCG:  Solving for Ux, Initial residual = 2.05443e-07, Final residual = 2.35982e-10, No Iterations 2
DILUbellerophonPBiCG:  Solving for Uy, Initial residual = 1.86846e-07, Final residual = 5.15151e-10, No Iterations 2
DILUbellerophonPBiCG:  Solving for Uz, Initial residual = 1.74708e-05, Final residual = 2.69907e-09, No Iterations 3
DILUbellerophonPBiCG:  Solving for p_rgh, Initial residual = 1.62027e-05, Final residual = 8.28071e-07, No Iterations 22
Interface error : 0.0602166 / 42.2246
Interface error : -0.198672 / 52.9337
time step continuity errors : sum local = 2.22466e-07, global = 1.1962e-07, cumulative = 6.43554e-06
PIMPLE: iteration 4
DILUbellerophonPBiCG:  Solving for alpha.water, Initial residual = 1.42219e-07, Final residual = 5.15112e-11, No Iterations 2
Phase-1 volume fraction = 0.666664  Min(alpha.water) = -1.52566e-10  Max(alpha.water) = 1.00811
MULES: Correcting alpha.water
MULES: Correcting alpha.water
MULES: Correcting alpha.water
Phase-1 volume fraction = 0.666664  Min(alpha.water) = -8.72313e-10  Max(alpha.water) = 1.00811
DILUbellerophonPBiCG:  Solving for Ux, Initial residual = 2.58351e-08, Final residual = 7.52788e-11, No Iterations 2
DILUbellerophonPBiCG:  Solving for Uy, Initial residual = 5.79061e-08, Final residual = 1.83451e-10, No Iterations 2
DILUbellerophonPBiCG:  Solving for Uz, Initial residual = 3.09284e-06, Final residual = 9.92139e-09, No Iterations 4
DILUbellerophonPBiCG:  Solving for p_rgh, Initial residual = 7.82716e-06, Final residual = 8.39377e-07, No Iterations 22
Interface error : 0.0602184 / 42.2246
Interface error : -0.198674 / 52.9337
time step continuity errors : sum local = 2.22445e-07, global = 1.1966e-07, cumulative = 6.5552e-06
DILUbellerophonPBiCG:  Solving for omega, Initial residual = 1.72655e-05, Final residual = 5.85139e-09, No Iterations 2
DILUbellerophonPBiCG:  Solving for k, Initial residual = 0.000263138, Final residual = 7.69833e-09, No Iterations 4
PIMPLE: not converged within 4 iterations
ExecutionTime = 235.74 s  ClockTime = 236 s

forces forces output:
    sum of forces:
        pressure : (8809.85 -6084.9 -3.12979e-14)
        viscous  : (173.608 -19.6504 -1.04185)
        porous   : (0 0 0)
    sum of moments:
        pressure : (-13202.8 -20545 3.33428e-13)
        viscous  : (-17.2501 -176.874 10.2387)
        porous   : (0 0 0)

forceCoeffs coeffs output:
    Cm    = 0.000493416
    Cd    = 0.432923
    Cl    = -0.294185
    Cl(f) = -0.146599
    Cl(r) = -0.147586

Courant Number mean: 0.0181301 max: 0.488718
Interface Courant Number mean: 6.83573e-06 max: 0.41604
deltaT = 0.00120085
Time = 0.013006

PIMPLE: iteration 1
DILUbellerophonPBiCG:  Solving for alpha.water, Initial residual = 1.29928e-06, Final residual = 3.9163e-10, No Iterations 2
Phase-1 volume fraction = 0.666664  Min(alpha.water) = -1.41655e-10  Max(alpha.water) = 1.00936
MULES: Correcting alpha.water
MULES: Correcting alpha.water
MULES: Correcting alpha.water
Phase-1 volume fraction = 0.666664  Min(alpha.water) = -1.22423e-09  Max(alpha.water) = 1.00936
DILUbellerophonPBiCG:  Solving for Ux, Initial residual = 0.000436094, Final residual = 3.37963e-09, No Iterations 4
DILUbellerophonPBiCG:  Solving for Uy, Initial residual = 0.00193866, Final residual = 4.12304e-09, No Iterations 4
DILUbellerophonPBiCG:  Solving for Uz, Initial residual = 0.00313116, Final residual = 1.04273e-08, No Iterations 4
DILUbellerophonPBiCG:  Solving for p_rgh, Initial residual = 0.000498263, Final residual = 3.98947e-06, No Iterations 64
Interface error : 0.0645467 / 42.2205
Interface error : -0.203397 / 52.9274
time step continuity errors : sum local = 2.38369e-07, global = 1.22037e-07, cumulative = 6.67724e-06
PIMPLE: iteration 2
DILUbellerophonPBiCG:  Solving for alpha.water, Initial residual = 1.91658e-07, Final residual = 8.61664e-11, No Iterations 2
Phase-1 volume fraction = 0.666664  Min(alpha.water) = -1.41654e-10  Max(alpha.water) = 1.00946
MULES: Correcting alpha.water
MULES: Correcting alpha.water
MULES: Correcting alpha.water
Phase-1 volume fraction = 0.666664  Min(alpha.water) = -6.54521e-09  Max(alpha.water) = 1.00946
DILUbellerophonPBiCG:  Solving for Ux, Initial residual = 1.4378e-06, Final residual = 1.48966e-10, No Iterations 3
DILUbellerophonPBiCG:  Solving for Uy, Initial residual = 4.21363e-06, Final residual = 5.27687e-09, No Iterations 2
DILUbellerophonPBiCG:  Solving for Uz, Initial residual = 1.40409e-05, Final residual = 2.53356e-09, No Iterations 3
DILUbellerophonPBiCG:  Solving for p_rgh, Initial residual = 5.76993e-05, Final residual = 8.39463e-07, No Iterations 108
Interface error : 0.0645871 / 42.2205
Interface error : -0.203431 / 52.9273
time step continuity errors : sum local = 2.35584e-07, global = 1.22807e-07, cumulative = 6.80005e-06
PIMPLE: iteration 3
DILUbellerophonPBiCG:  Solving for alpha.water, Initial residual = 1.64997e-07, Final residual = 6.80386e-11, No Iterations 2
Phase-1 volume fraction = 0.666664  Min(alpha.water) = -1.41655e-10  Max(alpha.water) = 1.00946
MULES: Correcting alpha.water
MULES: Correcting alpha.water
MULES: Correcting alpha.water
Phase-1 volume fraction = 0.666664  Min(alpha.water) = -6.50725e-09  Max(alpha.water) = 1.00946
DILUbellerophonPBiCG:  Solving for Ux, Initial residual = 2.03258e-07, Final residual = 2.14446e-10, No Iterations 2
DILUbellerophonPBiCG:  Solving for Uy, Initial residual = 1.90396e-07, Final residual = 6.08947e-10, No Iterations 2
DILUbellerophonPBiCG:  Solving for Uz, Initial residual = 1.62542e-05, Final residual = 3.32486e-09, No Iterations 3
DILUbellerophonPBiCG:  Solving for p_rgh, Initial residual = 1.50091e-05, Final residual = 9.17149e-07, No Iterations 22
Interface error : 0.0645911 / 42.2205
Interface error : -0.203434 / 52.9273
time step continuity errors : sum local = 2.35693e-07, global = 1.22755e-07, cumulative = 6.9228e-06
PIMPLE: iteration 4
DILUbellerophonPBiCG:  Solving for alpha.water, Initial residual = 1.63411e-07, Final residual = 6.77321e-11, No Iterations 2
Phase-1 volume fraction = 0.666664  Min(alpha.water) = -1.41655e-10  Max(alpha.water) = 1.00946
MULES: Correcting alpha.water
MULES: Correcting alpha.water
MULES: Correcting alpha.water
Phase-1 volume fraction = 0.666664  Min(alpha.water) = -6.50915e-09  Max(alpha.water) = 1.00946
DILUbellerophonPBiCG:  Solving for Ux, Initial residual = 2.93676e-08, Final residual = 7.40308e-09, No Iterations 1
DILUbellerophonPBiCG:  Solving for Uy, Initial residual = 6.50858e-08, Final residual = 2.20681e-10, No Iterations 2
DILUbellerophonPBiCG:  Solving for Uz, Initial residual = 3.09804e-06, Final residual = 5.42147e-09, No Iterations 3
DILUbellerophonPBiCG:  Solving for p_rgh, Initial residual = 6.94028e-06, Final residual = 6.57484e-07, No Iterations 36
Interface error : 0.064589 / 42.2205
Interface error : -0.203433 / 52.9273
time step continuity errors : sum local = 2.35444e-07, global = 1.2277e-07, cumulative = 7.04557e-06
DILUbellerophonPBiCG:  Solving for omega, Initial residual = 1.75242e-05, Final residual = 5.76943e-09, No Iterations 2
DILUbellerophonPBiCG:  Solving for k, Initial residual = 0.000268819, Final residual = 8.41517e-09, No Iterations 4
PIMPLE: not converged within 4 iterations
ExecutionTime = 251.44 s  ClockTime = 252 s

forces forces output:
    sum of forces:
        pressure : (8888.51 -6112.78 -3.02102e-14)
        viscous  : (173.413 -19.787 -1.27938)
        porous   : (0 0 0)
    sum of moments:
        pressure : (-13274.2 -20704.2 2.69925e-13)
        viscous  : (-17.3443 -176.864 10.223)
        porous   : (0 0 0)

forceCoeffs coeffs output:
    Cm    = 0.00049266
    Cd    = 0.436704
    Cl    = -0.295535
    Cl(f) = -0.147275
    Cl(r) = -0.14826

Courant Number mean: 0.0185488 max: 0.486264
Interface Courant Number mean: 7.65007e-06 max: 0.434186
deltaT = 0.00123477
Time = 0.0142407

PIMPLE: iteration 1
DILUbellerophonPBiCG:  Solving for alpha.water, Initial residual = 1.35808e-06, Final residual = 4.18966e-10, No Iterations 2
Phase-1 volume fraction = 0.666663  Min(alpha.water) = -1.31258e-10  Max(alpha.water) = 1.01082
MULES: Correcting alpha.water
MULES: Correcting alpha.water
MULES: Correcting alpha.water
Phase-1 volume fraction = 0.666663  Min(alpha.water) = -1.01346e-08  Max(alpha.water) = 1.01082
DILUbellerophonPBiCG:  Solving for Ux, Initial residual = 0.000444019, Final residual = 3.71683e-09, No Iterations 4
DILUbellerophonPBiCG:  Solving for Uy, Initial residual = 0.00197673, Final residual = 4.80014e-09, No Iterations 4
DILUbellerophonPBiCG:  Solving for Uz, Initial residual = 0.0029662, Final residual = 1.0998e-08, No Iterations 4
DILUbellerophonPBiCG:  Solving for p_rgh, Initial residual = 0.000523586, Final residual = 4.63355e-06, No Iterations 31
Interface error : 0.0689088 / 42.2164
Interface error : -0.208677 / 52.921
time step continuity errors : sum local = 2.5423e-07, global = 1.29224e-07, cumulative = 7.1748e-06
PIMPLE: iteration 2
DILUbellerophonPBiCG:  Solving for alpha.water, Initial residual = 2.14533e-07, Final residual = 1.13998e-10, No Iterations 2
Phase-1 volume fraction = 0.666663  Min(alpha.water) = -1.31258e-10  Max(alpha.water) = 1.01092
MULES: Correcting alpha.water
MULES: Correcting alpha.water
MULES: Correcting alpha.water
Phase-1 volume fraction = 0.666663  Min(alpha.water) = -1.66223e-08  Max(alpha.water) = 1.01092
DILUbellerophonPBiCG:  Solving for Ux, Initial residual = 1.46111e-06, Final residual = 1.95505e-09, No Iterations 3
DILUbellerophonPBiCG:  Solving for Uy, Initial residual = 4.29616e-06, Final residual = 3.97268e-09, No Iterations 2
DILUbellerophonPBiCG:  Solving for Uz, Initial residual = 9.09339e-06, Final residual = 3.12583e-09, No Iterations 3
DILUbellerophonPBiCG:  Solving for p_rgh, Initial residual = 5.82219e-05, Final residual = 9.86367e-07, No Iterations 85
Interface error : 0.0689984 / 42.2163
Interface error : -0.20878 / 52.9209
time step continuity errors : sum local = 2.51208e-07, global = 1.27212e-07, cumulative = 7.30201e-06
PIMPLE: iteration 3
DILUbellerophonPBiCG:  Solving for alpha.water, Initial residual = 1.90822e-07, Final residual = 9.49056e-11, No Iterations 2
Phase-1 volume fraction = 0.666663  Min(alpha.water) = -1.31258e-10  Max(alpha.water) = 1.01093
MULES: Correcting alpha.water
MULES: Correcting alpha.water
MULES: Correcting alpha.water
Phase-1 volume fraction = 0.666663  Min(alpha.water) = -1.67049e-08  Max(alpha.water) = 1.01093
DILUbellerophonPBiCG:  Solving for Ux, Initial residual = 2.15099e-07, Final residual = 1.75599e-10, No Iterations 2
DILUbellerophonPBiCG:  Solving for Uy, Initial residual = 3.31908e-07, Final residual = 5.19283e-10, No Iterations 2
DILUbellerophonPBiCG:  Solving for Uz, Initial residual = 1.15531e-05, Final residual = 8.53332e-09, No Iterations 3
DILUbellerophonPBiCG:  Solving for p_rgh, Initial residual = 1.30908e-05, Final residual = 6.63631e-07, No Iterations 54
Interface error : 0.0690202 / 42.2163
Interface error : -0.208796 / 52.921
time step continuity errors : sum local = 2.50876e-07, global = 1.27045e-07, cumulative = 7.42905e-06
DILUbellerophonPBiCG:  Solving for omega, Initial residual = 1.78601e-05, Final residual = 5.71093e-09, No Iterations 2
DILUbellerophonPBiCG:  Solving for k, Initial residual = 0.000276166, Final residual = 9.55079e-09, No Iterations 4
PIMPLE: converged in 3 iterations
ExecutionTime = 263.47 s  ClockTime = 264 s

forces forces output:
    sum of forces:
        pressure : (8965.43 -6138.92 -2.87835e-14)
        viscous  : (173.22 -19.9239 -1.52601)
        porous   : (0 0 0)
    sum of moments:
        pressure : (-13339.4 -20855.3 4.43383e-13)
        viscous  : (-17.4465 -176.851 10.2105)
        porous   : (0 0 0)

forceCoeffs coeffs output:
    Cm    = 0.000492058
    Cd    = 0.440402
    Cl    = -0.296802
    Cl(f) = -0.147909
    Cl(r) = -0.148893

Courant Number mean: 0.0190731 max: 0.49497
Interface Courant Number mean: 8.51256e-06 max: 0.454083
deltaT = 0.00124732
Time = 0.0154881

PIMPLE: iteration 1
DILUbellerophonPBiCG:  Solving for alpha.water, Initial residual = 1.39696e-06, Final residual = 4.33214e-10, No Iterations 2
Phase-1 volume fraction = 0.666663  Min(alpha.water) = -1.21533e-10  Max(alpha.water) = 1.01238
MULES: Correcting alpha.water
MULES: Correcting alpha.water
MULES: Correcting alpha.water
Phase-1 volume fraction = 0.666663  Min(alpha.water) = -2.39485e-08  Max(alpha.water) = 1.01238
DILUbellerophonPBiCG:  Solving for Ux, Initial residual = 0.000444379, Final residual = 3.8925e-09, No Iterations 4
DILUbellerophonPBiCG:  Solving for Uy, Initial residual = 0.00198165, Final residual = 5.03946e-09, No Iterations 4
DILUbellerophonPBiCG:  Solving for Uz, Initial residual = 0.00277362, Final residual = 1.07286e-08, No Iterations 4
DILUbellerophonPBiCG:  Solving for p_rgh, Initial residual = 0.000544204, Final residual = 5.33803e-06, No Iterations 39
Interface error : 0.073577 / 42.2122
Interface error : -0.21403 / 52.9145
time step continuity errors : sum local = 2.6621e-07, global = 1.30801e-07, cumulative = 7.55986e-06
PIMPLE: iteration 2
DILUbellerophonPBiCG:  Solving for alpha.water, Initial residual = 2.3321e-07, Final residual = 1.39864e-10, No Iterations 2
Phase-1 volume fraction = 0.666663  Min(alpha.water) = -1.21533e-10  Max(alpha.water) = 1.01249
MULES: Correcting alpha.water
MULES: Correcting alpha.water
MULES: Correcting alpha.water
Phase-1 volume fraction = 0.666663  Min(alpha.water) = -3.55798e-08  Max(alpha.water) = 1.01249
DILUbellerophonPBiCG:  Solving for Ux, Initial residual = 1.47814e-06, Final residual = 2.09134e-10, No Iterations 3
DILUbellerophonPBiCG:  Solving for Uy, Initial residual = 4.29075e-06, Final residual = 3.86706e-09, No Iterations 2
DILUbellerophonPBiCG:  Solving for Uz, Initial residual = 1.09572e-05, Final residual = 2.05475e-09, No Iterations 3
DILUbellerophonPBiCG:  Solving for p_rgh, Initial residual = 5.60062e-05, Final residual = 8.51745e-07, No Iterations 107
Interface error : 0.0734939 / 42.2122
Interface error : -0.213966 / 52.9145
time step continuity errors : sum local = 2.6239e-07, global = 1.28956e-07, cumulative = 7.68881e-06
PIMPLE: iteration 3
DILUbellerophonPBiCG:  Solving for alpha.water, Initial residual = 2.14208e-07, Final residual = 1.22988e-10, No Iterations 2
Phase-1 volume fraction = 0.666663  Min(alpha.water) = -1.21533e-10  Max(alpha.water) = 1.01249
MULES: Correcting alpha.water
MULES: Correcting alpha.water
MULES: Correcting alpha.water
Phase-1 volume fraction = 0.666663  Min(alpha.water) = -3.55926e-08  Max(alpha.water) = 1.01249
DILUbellerophonPBiCG:  Solving for Ux, Initial residual = 2.02904e-07, Final residual = 1.78374e-09, No Iterations 2
DILUbellerophonPBiCG:  Solving for Uy, Initial residual = 1.97155e-07, Final residual = 8.52363e-10, No Iterations 2
DILUbellerophonPBiCG:  Solving for Uz, Initial residual = 1.27669e-05, Final residual = 2.86116e-09, No Iterations 3
DILUbellerophonPBiCG:  Solving for p_rgh, Initial residual = 1.20047e-05, Final residual = 8.67778e-07, No Iterations 24
Interface error : 0.0734901 / 42.2122
Interface error : -0.213966 / 52.9145
time step continuity errors : sum local = 2.62429e-07, global = 1.28869e-07, cumulative = 7.81768e-06
PIMPLE: iteration 4
DILUbellerophonPBiCG:  Solving for alpha.water, Initial residual = 2.12577e-07, Final residual = 1.23259e-10, No Iterations 2
Phase-1 volume fraction = 0.666663  Min(alpha.water) = -1.21533e-10  Max(alpha.water) = 1.01249
MULES: Correcting alpha.water
MULES: Correcting alpha.water
MULES: Correcting alpha.water
Phase-1 volume fraction = 0.666663  Min(alpha.water) = -3.55962e-08  Max(alpha.water) = 1.01249
DILUbellerophonPBiCG:  Solving for Ux, Initial residual = 3.70591e-08, Final residual = 7.63675e-10, No Iterations 2
DILUbellerophonPBiCG:  Solving for Uy, Initial residual = 7.50444e-08, Final residual = 3.20869e-10, No Iterations 2
DILUbellerophonPBiCG:  Solving for Uz, Initial residual = 2.42892e-06, Final residual = 7.82801e-09, No Iterations 2
DILUbellerophonPBiCG:  Solving for p_rgh, Initial residual = 5.22575e-06, Final residual = 8.46655e-07, No Iterations 14
Interface error : 0.0734831 / 42.2122
Interface error : -0.213957 / 52.9145
time step continuity errors : sum local = 2.62377e-07, global = 1.28922e-07, cumulative = 7.9466e-06
DILUbellerophonPBiCG:  Solving for omega, Initial residual = 1.78891e-05, Final residual = 5.44686e-09, No Iterations 2
DILUbellerophonPBiCG:  Solving for k, Initial residual = 0.00027868, Final residual = 5.36094e-10, No Iterations 5
PIMPLE: not converged within 4 iterations
ExecutionTime = 278.08 s  ClockTime = 278 s

forces forces output:
    sum of forces:
        pressure : (9022.08 -6126.03 -2.72525e-14)
        viscous  : (173.046 -20.0579 -1.78425)
        porous   : (0 0 0)
    sum of moments:
        pressure : (-13330 -20965.7 1.59937e-14)
        viscous  : (-17.5507 -176.84 10.2046)
        porous   : (0 0 0)

forceCoeffs coeffs output:
    Cm    = 0.000491773
    Cd    = 0.443124
    Cl    = -0.296187
    Cl(f) = -0.147602
    Cl(r) = -0.148585

Courant Number mean: 0.0192675 max: 0.49445
Interface Courant Number mean: 9.45557e-06 max: 0.477997
deltaT = 0.00126132
Time = 0.0167494

PIMPLE: iteration 1
DILUbellerophonPBiCG:  Solving for alpha.water, Initial residual = 1.44033e-06, Final residual = 4.4956e-10, No Iterations 2
Phase-1 volume fraction = 0.666663  Min(alpha.water) = -1.12435e-10  Max(alpha.water) = 1.01403
MULES: Correcting alpha.water
MULES: Correcting alpha.water
MULES: Correcting alpha.water
Phase-1 volume fraction = 0.666663  Min(alpha.water) = -4.7958e-08  Max(alpha.water) = 1.01403
DILUbellerophonPBiCG:  Solving for Ux, Initial residual = 0.000445876, Final residual = 3.94138e-09, No Iterations 4
DILUbellerophonPBiCG:  Solving for Uy, Initial residual = 0.00199201, Final residual = 5.36886e-09, No Iterations 4
DILUbellerophonPBiCG:  Solving for Uz, Initial residual = 0.00261206, Final residual = 1.0769e-08, No Iterations 4
DILUbellerophonPBiCG:  Solving for p_rgh, Initial residual = 0.000560358, Final residual = 5.06445e-06, No Iterations 45
Interface error : 0.0779584 / 42.2082
Interface error : -0.219219 / 52.9081
time step continuity errors : sum local = 2.7799e-07, global = 1.32798e-07, cumulative = 8.0794e-06
PIMPLE: iteration 2
DILUbellerophonPBiCG:  Solving for alpha.water, Initial residual = 2.55585e-07, Final residual = 1.73138e-10, No Iterations 2
Phase-1 volume fraction = 0.666663  Min(alpha.water) = -1.12435e-10  Max(alpha.water) = 1.01414
MULES: Correcting alpha.water
MULES: Correcting alpha.water
MULES: Correcting alpha.water
Phase-1 volume fraction = 0.666663  Min(alpha.water) = -5.8783e-08  Max(alpha.water) = 1.01414
DILUbellerophonPBiCG:  Solving for Ux, Initial residual = 1.50035e-06, Final residual = 2.94703e-09, No Iterations 2
DILUbellerophonPBiCG:  Solving for Uy, Initial residual = 4.34798e-06, Final residual = 3.49162e-09, No Iterations 2
DILUbellerophonPBiCG:  Solving for Uz, Initial residual = 1.03179e-05, Final residual = 1.46907e-09, No Iterations 3
DILUbellerophonPBiCG:  Solving for p_rgh, Initial residual = 5.74594e-05, Final residual = 6.14539e-07, No Iterations 113
Interface error : 0.0779475 / 42.2082
Interface error : -0.219212 / 52.9081
time step continuity errors : sum local = 2.74044e-07, global = 1.31216e-07, cumulative = 8.21062e-06
PIMPLE: iteration 3
DILUbellerophonPBiCG:  Solving for alpha.water, Initial residual = 2.40784e-07, Final residual = 1.64533e-10, No Iterations 2
Phase-1 volume fraction = 0.666663  Min(alpha.water) = -1.12435e-10  Max(alpha.water) = 1.01414
MULES: Correcting alpha.water
MULES: Correcting alpha.water
MULES: Correcting alpha.water
Phase-1 volume fraction = 0.666663  Min(alpha.water) = -5.93328e-08  Max(alpha.water) = 1.01414
DILUbellerophonPBiCG:  Solving for Ux, Initial residual = 2.01681e-07, Final residual = 4.47798e-10, No Iterations 2
DILUbellerophonPBiCG:  Solving for Uy, Initial residual = 2.14703e-07, Final residual = 1.7551e-09, No Iterations 2
DILUbellerophonPBiCG:  Solving for Uz, Initial residual = 1.18533e-05, Final residual = 7.83499e-09, No Iterations 3
DILUbellerophonPBiCG:  Solving for p_rgh, Initial residual = 1.28882e-05, Final residual = 6.91698e-07, No Iterations 37
Interface error : 0.0779445 / 42.2082
Interface error : -0.21921 / 52.9081
time step continuity errors : sum local = 2.74064e-07, global = 1.31276e-07, cumulative = 8.34189e-06
PIMPLE: iteration 4
DILUbellerophonPBiCG:  Solving for alpha.water, Initial residual = 2.38869e-07, Final residual = 1.64508e-10, No Iterations 2
Phase-1 volume fraction = 0.666663  Min(alpha.water) = -1.12435e-10  Max(alpha.water) = 1.01414
MULES: Correcting alpha.water
MULES: Correcting alpha.water
MULES: Correcting alpha.water
Phase-1 volume fraction = 0.666663  Min(alpha.water) = -5.93784e-08  Max(alpha.water) = 1.01414
DILUbellerophonPBiCG:  Solving for Ux, Initial residual = 4.52458e-08, Final residual = 2.42624e-10, No Iterations 2
DILUbellerophonPBiCG:  Solving for Uy, Initial residual = 9.15402e-08, Final residual = 5.36427e-10, No Iterations 2
DILUbellerophonPBiCG:  Solving for Uz, Initial residual = 3.17215e-06, Final residual = 1.32873e-09, No Iterations 3
DILUbellerophonPBiCG:  Solving for p_rgh, Initial residual = 5.71829e-06, Final residual = 9.39872e-07, No Iterations 30
Interface error : 0.0779452 / 42.2082
Interface error : -0.21921 / 52.9081
time step continuity errors : sum local = 2.74309e-07, global = 1.31236e-07, cumulative = 8.47313e-06
DILUbellerophonPBiCG:  Solving for omega, Initial residual = 1.79083e-05, Final residual = 5.24083e-09, No Iterations 2
DILUbellerophonPBiCG:  Solving for k, Initial residual = 0.000281454, Final residual = 5.52043e-10, No Iterations 5
PIMPLE: not converged within 4 iterations
ExecutionTime = 293.7 s  ClockTime = 294 s

forces forces output:
    sum of forces:
        pressure : (9075.55 -6126.11 -2.61302e-14)
        viscous  : (172.875 -20.1922 -2.04496)
        porous   : (0 0 0)
    sum of moments:
        pressure : (-13338 -21071.7 2.45329e-13)
        viscous  : (-17.6626 -176.829 10.196)
        porous   : (0 0 0)

forceCoeffs coeffs output:
    Cm    = 0.000491357
    Cd    = 0.445692
    Cl    = -0.296197
    Cl(f) = -0.147607
    Cl(r) = -0.14859

Courant Number mean: 0.0194846 max: 0.528472
Interface Courant Number mean: 1.05551e-05 max: 0.513872
deltaT = 0.00119337
Time = 0.0179427

PIMPLE: iteration 1
DILUbellerophonPBiCG:  Solving for alpha.water, Initial residual = 1.3907e-06, Final residual = 4.03305e-10, No Iterations 2
Phase-1 volume fraction = 0.666662  Min(alpha.water) = -1.06899e-10  Max(alpha.water) = 1.01567
MULES: Correcting alpha.water
MULES: Correcting alpha.water
MULES: Correcting alpha.water
Phase-1 volume fraction = 0.666662  Min(alpha.water) = -6.82299e-08  Max(alpha.water) = 1.01567
DILUbellerophonPBiCG:  Solving for Ux, Initial residual = 0.000418939, Final residual = 3.30086e-09, No Iterations 4
DILUbellerophonPBiCG:  Solving for Uy, Initial residual = 0.00187487, Final residual = 3.90033e-09, No Iterations 4
DILUbellerophonPBiCG:  Solving for Uz, Initial residual = 0.00231212, Final residual = 8.38744e-09, No Iterations 4
DILUbellerophonPBiCG:  Solving for p_rgh, Initial residual = 0.000566704, Final residual = 4.93101e-06, No Iterations 101
Interface error : 0.0821906 / 42.2045
Interface error : -0.222704 / 52.902
time step continuity errors : sum local = 2.6936e-07, global = 1.24093e-07, cumulative = 8.59722e-06
PIMPLE: iteration 2
DILUbellerophonPBiCG:  Solving for alpha.water, Initial residual = 2.59119e-07, Final residual = 1.75877e-10, No Iterations 2
Phase-1 volume fraction = 0.666662  Min(alpha.water) = -1.06898e-10  Max(alpha.water) = 1.01577
MULES: Correcting alpha.water
MULES: Correcting alpha.water
MULES: Correcting alpha.water
Phase-1 volume fraction = 0.666662  Min(alpha.water) = -6.51748e-08  Max(alpha.water) = 1.01577
DILUbellerophonPBiCG:  Solving for Ux, Initial residual = 1.41541e-06, Final residual = 3.57333e-09, No Iterations 2
DILUbellerophonPBiCG:  Solving for Uy, Initial residual = 4.29745e-06, Final residual = 3.7266e-09, No Iterations 2
DILUbellerophonPBiCG:  Solving for Uz, Initial residual = 1.43651e-05, Final residual = 2.29215e-09, No Iterations 3
DILUbellerophonPBiCG:  Solving for p_rgh, Initial residual = 5.27368e-05, Final residual = 4.50725e-07, No Iterations 107
Interface error : 0.0821391 / 42.2045
Interface error : -0.222633 / 52.9019
time step continuity errors : sum local = 2.65703e-07, global = 1.23602e-07, cumulative = 8.72082e-06
PIMPLE: iteration 3
DILUbellerophonPBiCG:  Solving for alpha.water, Initial residual = 2.50589e-07, Final residual = 1.83306e-10, No Iterations 2
Phase-1 volume fraction = 0.666662  Min(alpha.water) = -1.06898e-10  Max(alpha.water) = 1.01577
MULES: Correcting alpha.water
MULES: Correcting alpha.water
MULES: Correcting alpha.water
Phase-1 volume fraction = 0.666662  Min(alpha.water) = -6.44609e-08  Max(alpha.water) = 1.01577
DILUbellerophonPBiCG:  Solving for Ux, Initial residual = 1.93411e-07, Final residual = 3.32093e-10, No Iterations 2
DILUbellerophonPBiCG:  Solving for Uy, Initial residual = 2.4584e-07, Final residual = 8.42338e-10, No Iterations 2
DILUbellerophonPBiCG:  Solving for Uz, Initial residual = 1.18673e-05, Final residual = 3.03422e-09, No Iterations 3
DILUbellerophonPBiCG:  Solving for p_rgh, Initial residual = 1.18576e-05, Final residual = 7.39572e-07, No Iterations 28
Interface error : 0.0821455 / 42.2045
Interface error : -0.222641 / 52.9019
time step continuity errors : sum local = 2.65968e-07, global = 1.23598e-07, cumulative = 8.84442e-06
PIMPLE: iteration 4
DILUbellerophonPBiCG:  Solving for alpha.water, Initial residual = 2.49038e-07, Final residual = 1.84077e-10, No Iterations 2
Phase-1 volume fraction = 0.666662  Min(alpha.water) = -1.06898e-10  Max(alpha.water) = 1.01577
MULES: Correcting alpha.water
MULES: Correcting alpha.water
MULES: Correcting alpha.water
Phase-1 volume fraction = 0.666662  Min(alpha.water) = -6.44754e-08  Max(alpha.water) = 1.01577
DILUbellerophonPBiCG:  Solving for Ux, Initial residual = 5.20532e-08, Final residual = 3.64405e-10, No Iterations 2
DILUbellerophonPBiCG:  Solving for Uy, Initial residual = 1.09134e-07, Final residual = 4.50372e-10, No Iterations 2
DILUbellerophonPBiCG:  Solving for Uz, Initial residual = 3.083e-06, Final residual = 1.33085e-09, No Iterations 3
DILUbellerophonPBiCG:  Solving for p_rgh, Initial residual = 5.10578e-06, Final residual = 8.40271e-07, No Iterations 22
Interface error : 0.0821383 / 42.2045
Interface error : -0.222634 / 52.9019
time step continuity errors : sum local = 2.66077e-07, global = 1.23632e-07, cumulative = 8.96805e-06
DILUbellerophonPBiCG:  Solving for omega, Initial residual = 1.67526e-05, Final residual = 4.27967e-09, No Iterations 2
DILUbellerophonPBiCG:  Solving for k, Initial residual = 0.000266003, Final residual = 9.32258e-09, No Iterations 4
PIMPLE: not converged within 4 iterations
ExecutionTime = 310.13 s  ClockTime = 311 s

forces forces output:
    sum of forces:
        pressure : (9066.71 -6008.91 -2.54286e-14)
        viscous  : (172.73 -20.3027 -2.29148)
        porous   : (0 0 0)
    sum of moments:
        pressure : (-13116.7 -21054.2 2.73645e-13)
        viscous  : (-17.7633 -176.833 10.188)
        porous   : (0 0 0)

forceCoeffs coeffs output:
    Cm    = 0.00049097
    Cd    = 0.445259
    Cl    = -0.290555
    Cl(f) = -0.144786
    Cl(r) = -0.145768

Courant Number mean: 0.0184358 max: 0.523039
Interface Courant Number mean: 1.07442e-05 max: 0.510472
deltaT = 0.0011408
[...]
PIMPLE: iteration 3
DILUbellerophonPBiCG:  Solving for alpha.water, Initial residual = 6.35467e-06, Final residual = 1.58789e-09, No Iterations 2
Phase-1 volume fraction = 0.666536  Min(alpha.water) = -3.06333e-09  Max(alpha.water) = 1.12762
MULES: Correcting alpha.water
MULES: Correcting alpha.water
MULES: Correcting alpha.water
Phase-1 volume fraction = 0.666536  Min(alpha.water) = -5.27933e-08  Max(alpha.water) = 1.12762
DILUbellerophonPBiCG:  Solving for Ux, Initial residual = 2.30832e-08, Final residual = 8.39155e-11, No Iterations 2
DILUbellerophonPBiCG:  Solving for Uy, Initial residual = 1.06186e-07, Final residual = 4.5685e-10, No Iterations 2
DILUbellerophonPBiCG:  Solving for Uz, Initial residual = 2.69645e-07, Final residual = 1.46177e-09, No Iterations 2
DILUbellerophonPBiCG:  Solving for p_rgh, Initial residual = 9.66659e-05, Final residual = 9.22123e-07, No Iterations 45
Interface error : 0.0424625 / 41.4505
Interface error : -0.12405 / 51.0367
time step continuity errors : sum local = 1.06807e-07, global = 5.27197e-08, cumulative = 8.08998e-05
DILUbellerophonPBiCG:  Solving for omega, Initial residual = 1.41287e-05, Final residual = 1.00872e-09, No Iterations 3
DILUbellerophonPBiCG:  Solving for k, Initial residual = 0.000184053, Final residual = 1.24059e-09, No Iterations 4
PIMPLE: converged in 3 iterations
ExecutionTime = 4425.4 s  ClockTime = 4434 s

forces forces output:
    sum of forces:
        pressure : (11457.6 -3123.37 -2.88521e-14)
        viscous  : (146.482 -28.7501 -29.1414)
        porous   : (0 0 0)
    sum of moments:
        pressure : (-6503.58 -23041 2.28482e-13)
        viscous  : (-32.6598 -164.282 2.26406)
        porous   : (0 0 0)

forceCoeffs coeffs output:
    Cm    = 0.000109108
    Cd    = 0.559212
    Cl    = -0.151904
    Cl(f) = -0.075843
    Cl(r) = -0.0760613

fieldAverage fieldAverage output:
    Calculating averages

Courant Number mean: 0.0138082 max: 0.500401
Interface Courant Number mean: 8.97849e-05 max: 0.273447
deltaT = 0.000876763
Time = 0.341853

PIMPLE: iteration 1
DILUbellerophonPBiCG:  Solving for alpha.water, Initial residual = 8.39615e-06, Final residual = 1.38568e-09, No Iterations 2
Phase-1 volume fraction = 0.666536  Min(alpha.water) = -2.86725e-09  Max(alpha.water) = 1.12676
MULES: Correcting alpha.water
MULES: Correcting alpha.water
MULES: Correcting alpha.water
Phase-1 volume fraction = 0.666536  Min(alpha.water) = -4.1996e-08  Max(alpha.water) = 1.12676
DILUbellerophonPBiCG:  Solving for Ux, Initial residual = 0.000225588, Final residual = 2.7643e-10, No Iterations 4
DILUbellerophonPBiCG:  Solving for Uy, Initial residual = 0.00128418, Final residual = 4.08194e-10, No Iterations 5
DILUbellerophonPBiCG:  Solving for Uz, Initial residual = 0.000162502, Final residual = 1.63806e-09, No Iterations 4
DILUbellerophonPBiCG:  Solving for p_rgh, Initial residual = 0.00711612, Final residual = 6.25393e-05, No Iterations 13
Interface error : 0.0405118 / 41.4458
Interface error : -0.12206 / 51.0301
time step continuity errors : sum local = 1.1446e-07, global = 5.24663e-08, cumulative = 8.09522e-05
PIMPLE: iteration 2
DILUbellerophonPBiCG:  Solving for alpha.water, Initial residual = 6.35281e-06, Final residual = 1.57492e-09, No Iterations 2
Phase-1 volume fraction = 0.666536  Min(alpha.water) = -5.3124e-11  Max(alpha.water) = 1.12674
MULES: Correcting alpha.water
MULES: Correcting alpha.water
MULES: Correcting alpha.water
Phase-1 volume fraction = 0.666536  Min(alpha.water) = -4.43348e-08  Max(alpha.water) = 1.12674
DILUbellerophonPBiCG:  Solving for Ux, Initial residual = 5.94751e-07, Final residual = 1.10367e-09, No Iterations 2
DILUbellerophonPBiCG:  Solving for Uy, Initial residual = 2.10414e-06, Final residual = 3.22094e-09, No Iterations 2
DILUbellerophonPBiCG:  Solving for Uz, Initial residual = 9.93041e-07, Final residual = 4.37611e-09, No Iterations 2
DILUbellerophonPBiCG:  Solving for p_rgh, Initial residual = 0.000491571, Final residual = 4.81653e-06, No Iterations 41
Interface error : 0.0406535 / 41.4456
Interface error : -0.122086 / 51.03
time step continuity errors : sum local = 1.05001e-07, global = 5.24773e-08, cumulative = 8.10047e-05
PIMPLE: iteration 3
DILUbellerophonPBiCG:  Solving for alpha.water, Initial residual = 6.3589e-06, Final residual = 1.57799e-09, No Iterations 2
Phase-1 volume fraction = 0.666536  Min(alpha.water) = -6.43071e-09  Max(alpha.water) = 1.12674
MULES: Correcting alpha.water
MULES: Correcting alpha.water
MULES: Correcting alpha.water
Phase-1 volume fraction = 0.666536  Min(alpha.water) = -4.39e-08  Max(alpha.water) = 1.12674
DILUbellerophonPBiCG:  Solving for Ux, Initial residual = 2.19834e-08, Final residual = 9.47035e-11, No Iterations 2
DILUbellerophonPBiCG:  Solving for Uy, Initial residual = 1.04175e-07, Final residual = 4.82814e-10, No Iterations 2
DILUbellerophonPBiCG:  Solving for Uz, Initial residual = 2.64121e-07, Final residual = 1.46665e-09, No Iterations 2
DILUbellerophonPBiCG:  Solving for p_rgh, Initial residual = 9.83822e-05, Final residual = 6.46641e-07, No Iterations 94
Interface error : 0.0407719 / 41.4456
Interface error : -0.122207 / 51.03
time step continuity errors : sum local = 1.04399e-07, global = 5.25836e-08, cumulative = 8.10573e-05
DILUbellerophonPBiCG:  Solving for omega, Initial residual = 1.41289e-05, Final residual = 1.02123e-09, No Iterations 3
DILUbellerophonPBiCG:  Solving for k, Initial residual = 0.000183849, Final residual = 1.26687e-09, No Iterations 4
PIMPLE: converged in 3 iterations
ExecutionTime = 4436.76 s  ClockTime = 4445 s

forces forces output:
    sum of forces:
        pressure : (11459.9 -3110.18 -2.88626e-14)
        viscous  : (146.416 -28.7149 -29.2016)
        porous   : (0 0 0)
    sum of moments:
        pressure : (-6469.44 -23038.9 2.99648e-13)
        viscous  : (-32.6494 -164.271 2.23601)
        porous   : (0 0 0)

forceCoeffs coeffs output:
    Cm    = 0.000107756
    Cd    = 0.559321
    Cl    = -0.151267
    Cl(f) = -0.0755258
    Cl(r) = -0.0757413

fieldAverage fieldAverage output:
    Calculating averages

Courant Number mean: 0.0137975 max: 0.500323
Interface Courant Number mean: 8.98985e-05 max: 0.272638
deltaT = 0.000876197
Time = 0.342729

PIMPLE: iteration 1
DILUbellerophonPBiCG:  Solving for alpha.water, Initial residual = 8.40192e-06, Final residual = 1.38261e-09, No Iterations 2
Phase-1 volume fraction = 0.666535  Min(alpha.water) = -5.20243e-11  Max(alpha.water) = 1.12588
MULES: Correcting alpha.water
MULES: Correcting alpha.water
MULES: Correcting alpha.water
Phase-1 volume fraction = 0.666535  Min(alpha.water) = -4.01185e-08  Max(alpha.water) = 1.12588
DILUbellerophonPBiCG:  Solving for Ux, Initial residual = 0.000225285, Final residual = 2.74827e-10, No Iterations 4
DILUbellerophonPBiCG:  Solving for Uy, Initial residual = 0.00128306, Final residual = 4.09872e-10, No Iterations 5
DILUbellerophonPBiCG:  Solving for Uz, Initial residual = 0.000162073, Final residual = 3.58866e-10, No Iterations 5
DILUbellerophonPBiCG:  Solving for p_rgh, Initial residual = 0.00715865, Final residual = 5.81146e-05, No Iterations 8
Interface error : 0.0389311 / 41.4409
Interface error : -0.120111 / 51.0234
time step continuity errors : sum local = 1.1378e-07, global = 5.25585e-08, cumulative = 8.11099e-05
PIMPLE: iteration 2
DILUbellerophonPBiCG:  Solving for alpha.water, Initial residual = 6.35885e-06, Final residual = 1.57056e-09, No Iterations 2
Phase-1 volume fraction = 0.666535  Min(alpha.water) = -5.20183e-11  Max(alpha.water) = 1.12586
MULES: Correcting alpha.water
MULES: Correcting alpha.water
MULES: Correcting alpha.water
Phase-1 volume fraction = 0.666535  Min(alpha.water) = -4.10817e-08  Max(alpha.water) = 1.12586
DILUbellerophonPBiCG:  Solving for Ux, Initial residual = 5.94095e-07, Final residual = 3.12965e-09, No Iterations 2
DILUbellerophonPBiCG:  Solving for Uy, Initial residual = 2.09648e-06, Final residual = 3.11861e-09, No Iterations 2
DILUbellerophonPBiCG:  Solving for Uz, Initial residual = 9.91561e-07, Final residual = 4.34613e-09, No Iterations 2
DILUbellerophonPBiCG:  Solving for p_rgh, Initial residual = 0.000497303, Final residual = 4.2156e-06, No Iterations 60
Interface error : 0.039032 / 41.4408
Interface error : -0.120291 / 51.0233
time step continuity errors : sum local = 1.02581e-07, global = 5.23677e-08, cumulative = 8.11622e-05
PIMPLE: iteration 3
DILUbellerophonPBiCG:  Solving for alpha.water, Initial residual = 6.36481e-06, Final residual = 1.5737e-09, No Iterations 2
Phase-1 volume fraction = 0.666535  Min(alpha.water) = -5.20154e-11  Max(alpha.water) = 1.12586
MULES: Correcting alpha.water
MULES: Correcting alpha.water
MULES: Correcting alpha.water
Phase-1 volume fraction = 0.666535  Min(alpha.water) = -4.10122e-08  Max(alpha.water) = 1.12586
DILUbellerophonPBiCG:  Solving for Ux, Initial residual = 2.35722e-08, Final residual = 8.244e-11, No Iterations 2
DILUbellerophonPBiCG:  Solving for Uy, Initial residual = 1.08023e-07, Final residual = 4.72733e-10, No Iterations 2
DILUbellerophonPBiCG:  Solving for Uz, Initial residual = 2.70727e-07, Final residual = 1.49046e-09, No Iterations 2
DILUbellerophonPBiCG:  Solving for p_rgh, Initial residual = 9.81257e-05, Final residual = 9.40812e-07, No Iterations 94
Interface error : 0.0390911 / 41.4408
Interface error : -0.120361 / 51.0233
time step continuity errors : sum local = 1.02114e-07, global = 5.24412e-08, cumulative = 8.12147e-05
DILUbellerophonPBiCG:  Solving for omega, Initial residual = 1.41293e-05, Final residual = 1.04064e-09, No Iterations 3
DILUbellerophonPBiCG:  Solving for k, Initial residual = 0.000183691, Final residual = 1.29626e-09, No Iterations 4
PIMPLE: converged in 3 iterations
ExecutionTime = 4448.54 s  ClockTime = 4457 s

forces forces output:
    sum of forces:
        pressure : (11465.4 -3096.79 -2.88358e-14)
        viscous  : (146.349 -28.6791 -29.2619)
        porous   : (0 0 0)
    sum of moments:
        pressure : (-6435.52 -23043.3 3.62021e-13)
        viscous  : (-32.6392 -164.261 2.20808)
        porous   : (0 0 0)

forceCoeffs coeffs output:
    Cm    = 0.00010641
    Cd    = 0.559586
    Cl    = -0.15062
    Cl(f) = -0.0752035
    Cl(r) = -0.0754163

fieldAverage fieldAverage output:
    Calculating averages

Courant Number mean: 0.0137889 max: 0.500228
Interface Courant Number mean: 8.99353e-05 max: 0.271886
deltaT = 0.000875796
Time = 0.343605

PIMPLE: iteration 1
DILUbellerophonPBiCG:  Solving for alpha.water, Initial residual = 8.40982e-06, Final residual = 1.37902e-09, No Iterations 2
Phase-1 volume fraction = 0.666535  Min(alpha.water) = -5.08337e-11  Max(alpha.water) = 1.12499
MULES: Correcting alpha.water
MULES: Correcting alpha.water
MULES: Correcting alpha.water
Phase-1 volume fraction = 0.666535  Min(alpha.water) = -1.20062e-08  Max(alpha.water) = 1.12499
DILUbellerophonPBiCG:  Solving for Ux, Initial residual = 0.000225003, Final residual = 2.73121e-10, No Iterations 4
DILUbellerophonPBiCG:  Solving for Uy, Initial residual = 0.00128218, Final residual = 8.83955e-09, No Iterations 4
DILUbellerophonPBiCG:  Solving for Uz, Initial residual = 0.000161636, Final residual = 5.04809e-09, No Iterations 4
DILUbellerophonPBiCG:  Solving for p_rgh, Initial residual = 0.00718884, Final residual = 6.5121e-05, No Iterations 13
Interface error : 0.0371474 / 41.4362
Interface error : -0.118358 / 51.0166
time step continuity errors : sum local = 1.10403e-07, global = 5.22472e-08, cumulative = 8.12669e-05
PIMPLE: iteration 2
DILUbellerophonPBiCG:  Solving for alpha.water, Initial residual = 6.36376e-06, Final residual = 1.56122e-09, No Iterations 2
Phase-1 volume fraction = 0.666535  Min(alpha.water) = -5.08265e-11  Max(alpha.water) = 1.12497
MULES: Correcting alpha.water
MULES: Correcting alpha.water
MULES: Correcting alpha.water
Phase-1 volume fraction = 0.666535  Min(alpha.water) = -1.08052e-08  Max(alpha.water) = 1.12497
DILUbellerophonPBiCG:  Solving for Ux, Initial residual = 5.93015e-07, Final residual = 8.61821e-10, No Iterations 2
DILUbellerophonPBiCG:  Solving for Uy, Initial residual = 2.09927e-06, Final residual = 3.61133e-09, No Iterations 2
DILUbellerophonPBiCG:  Solving for Uz, Initial residual = 9.85975e-07, Final residual = 4.33247e-09, No Iterations 2
DILUbellerophonPBiCG:  Solving for p_rgh, Initial residual = 0.000498776, Final residual = 4.4902e-06, No Iterations 41
Interface error : 0.037322 / 41.436
Interface error : -0.118419 / 51.0166
time step continuity errors : sum local = 1.00412e-07, global = 5.22234e-08, cumulative = 8.13191e-05
PIMPLE: iteration 3
DILUbellerophonPBiCG:  Solving for alpha.water, Initial residual = 6.36988e-06, Final residual = 1.56406e-09, No Iterations 2
Phase-1 volume fraction = 0.666535  Min(alpha.water) = -5.0825e-11  Max(alpha.water) = 1.12497
MULES: Correcting alpha.water
MULES: Correcting alpha.water
MULES: Correcting alpha.water
Phase-1 volume fraction = 0.666535  Min(alpha.water) = -1.06257e-08  Max(alpha.water) = 1.12497
DILUbellerophonPBiCG:  Solving for Ux, Initial residual = 2.15633e-08, Final residual = 9.15864e-11, No Iterations 2
DILUbellerophonPBiCG:  Solving for Uy, Initial residual = 1.01992e-07, Final residual = 5.02489e-10, No Iterations 2
DILUbellerophonPBiCG:  Solving for Uz, Initial residual = 2.57603e-07, Final residual = 1.47414e-09, No Iterations 2
DILUbellerophonPBiCG:  Solving for p_rgh, Initial residual = 9.81838e-05, Final residual = 8.47435e-07, No Iterations 81
Interface error : 0.0374467 / 41.436
Interface error : -0.118547 / 51.0165
time step continuity errors : sum local = 9.98754e-08, global = 5.22803e-08, cumulative = 8.13714e-05
DILUbellerophonPBiCG:  Solving for omega, Initial residual = 1.41368e-05, Final residual = 1.06167e-09, No Iterations 3
DILUbellerophonPBiCG:  Solving for k, Initial residual = 0.000183538, Final residual = 1.33327e-09, No Iterations 4
PIMPLE: converged in 3 iterations
ExecutionTime = 4459.6 s  ClockTime = 4468 s

forces forces output:
    sum of forces:
        pressure : (11467 -3085 -2.88167e-14)
        viscous  : (146.283 -28.6428 -29.3222)
        porous   : (0 0 0)
    sum of moments:
        pressure : (-6405.2 -23044.5 2.11532e-13)
        viscous  : (-32.6287 -164.25 2.18042)
        porous   : (0 0 0)

forceCoeffs coeffs output:
    Cm    = 0.000105077
    Cd    = 0.559658
    Cl    = -0.15005
    Cl(f) = -0.07492
    Cl(r) = -0.0751302

fieldAverage fieldAverage output:
    Calculating averages

Courant Number mean: 0.0137829 max: 0.500136
Interface Courant Number mean: 8.99574e-05 max: 0.278279
deltaT = 0.000875558
Time = 0.34448

PIMPLE: iteration 1
DILUbellerophonPBiCG:  Solving for alpha.water, Initial residual = 8.41926e-06, Final residual = 1.37482e-09, No Iterations 2
Phase-1 volume fraction = 0.666535  Min(alpha.water) = -4.95765e-11  Max(alpha.water) = 1.1241
MULES: Correcting alpha.water
MULES: Correcting alpha.water
MULES: Correcting alpha.water
Phase-1 volume fraction = 0.666535  Min(alpha.water) = -3.77468e-09  Max(alpha.water) = 1.1241
DILUbellerophonPBiCG:  Solving for Ux, Initial residual = 0.000224772, Final residual = 2.72494e-10, No Iterations 4
DILUbellerophonPBiCG:  Solving for Uy, Initial residual = 0.00128158, Final residual = 5.35397e-09, No Iterations 4
DILUbellerophonPBiCG:  Solving for Uz, Initial residual = 0.000161273, Final residual = 4.28895e-09, No Iterations 4
DILUbellerophonPBiCG:  Solving for p_rgh, Initial residual = 0.0071988, Final residual = 4.93574e-05, No Iterations 8
Interface error : 0.0356669 / 41.4313
Interface error : -0.116486 / 51.01
time step continuity errors : sum local = 1.05627e-07, global = 5.2214e-08, cumulative = 8.14236e-05
PIMPLE: iteration 2
DILUbellerophonPBiCG:  Solving for alpha.water, Initial residual = 6.37265e-06, Final residual = 1.55903e-09, No Iterations 2
Phase-1 volume fraction = 0.666535  Min(alpha.water) = -4.95685e-11  Max(alpha.water) = 1.12408
MULES: Correcting alpha.water
MULES: Correcting alpha.water
MULES: Correcting alpha.water
Phase-1 volume fraction = 0.666535  Min(alpha.water) = -4.6676e-09  Max(alpha.water) = 1.12408
DILUbellerophonPBiCG:  Solving for Ux, Initial residual = 5.92782e-07, Final residual = 2.60036e-09, No Iterations 2
DILUbellerophonPBiCG:  Solving for Uy, Initial residual = 2.09255e-06, Final residual = 3.52743e-09, No Iterations 2
DILUbellerophonPBiCG:  Solving for Uz, Initial residual = 9.88485e-07, Final residual = 4.28557e-09, No Iterations 2
DILUbellerophonPBiCG:  Solving for p_rgh, Initial residual = 0.000490082, Final residual = 3.4802e-06, No Iterations 42
Interface error : 0.0357014 / 41.4311
Interface error : -0.116616 / 51.0098
time step continuity errors : sum local = 9.80295e-08, global = 5.2071e-08, cumulative = 8.14757e-05
PIMPLE: iteration 3
DILUbellerophonPBiCG:  Solving for alpha.water, Initial residual = 6.37859e-06, Final residual = 1.56188e-09, No Iterations 2
Phase-1 volume fraction = 0.666535  Min(alpha.water) = -4.95681e-11  Max(alpha.water) = 1.12408
MULES: Correcting alpha.water
MULES: Correcting alpha.water
MULES: Correcting alpha.water
Phase-1 volume fraction = 0.666535  Min(alpha.water) = -4.26592e-09  Max(alpha.water) = 1.12408
DILUbellerophonPBiCG:  Solving for Ux, Initial residual = 2.32778e-08, Final residual = 8.53785e-11, No Iterations 2
DILUbellerophonPBiCG:  Solving for Uy, Initial residual = 1.08584e-07, Final residual = 4.95973e-10, No Iterations 2
DILUbellerophonPBiCG:  Solving for Uz, Initial residual = 2.72826e-07, Final residual = 1.49828e-09, No Iterations 2
DILUbellerophonPBiCG:  Solving for p_rgh, Initial residual = 9.79681e-05, Final residual = 8.01894e-07, No Iterations 75
Interface error : 0.0357581 / 41.4312
Interface error : -0.116682 / 51.0098
time step continuity errors : sum local = 9.75873e-08, global = 5.21435e-08, cumulative = 8.15278e-05
DILUbellerophonPBiCG:  Solving for omega, Initial residual = 1.41442e-05, Final residual = 1.08121e-09, No Iterations 3
DILUbellerophonPBiCG:  Solving for k, Initial residual = 0.000183458, Final residual = 1.36901e-09, No Iterations 4
PIMPLE: converged in 3 iterations
ExecutionTime = 4470.27 s  ClockTime = 4479 s

forces forces output:
    sum of forces:
        pressure : (11474.5 -3070.7 -2.87829e-14)
        viscous  : (146.218 -28.6066 -29.3842)
        porous   : (0 0 0)
    sum of moments:
        pressure : (-6369.62 -23050.5 1.90037e-13)
        viscous  : (-32.617 -164.239 2.15289)
        porous   : (0 0 0)

forceCoeffs coeffs output:
    Cm    = 0.00010375
    Cd    = 0.560016
    Cl    = -0.149359
    Cl(f) = -0.0745757
    Cl(r) = -0.0747832

fieldAverage fieldAverage output:
    Calculating averages

Courant Number mean: 0.0137795 max: 0.500045
Interface Courant Number mean: 8.99435e-05 max: 0.278471
deltaT = 0.000875479
Time = 0.345356

PIMPLE: iteration 1
DILUbellerophonPBiCG:  Solving for alpha.water, Initial residual = 8.43021e-06, Final residual = 1.37121e-09, No Iterations 2
Phase-1 volume fraction = 0.666535  Min(alpha.water) = -4.82632e-11  Max(alpha.water) = 1.1232
MULES: Correcting alpha.water
MULES: Correcting alpha.water
MULES: Correcting alpha.water
Phase-1 volume fraction = 0.666535  Min(alpha.water) = -9.77026e-09  Max(alpha.water) = 1.1232
DILUbellerophonPBiCG:  Solving for Ux, Initial residual = 0.000224577, Final residual = 2.73603e-10, No Iterations 4
DILUbellerophonPBiCG:  Solving for Uy, Initial residual = 0.00128121, Final residual = 2.99041e-09, No Iterations 4
DILUbellerophonPBiCG:  Solving for Uz, Initial residual = 0.000160943, Final residual = 4.3313e-09, No Iterations 4
DILUbellerophonPBiCG:  Solving for p_rgh, Initial residual = 0.00723861, Final residual = 6.2493e-05, No Iterations 13
Interface error : 0.0338217 / 41.4265
Interface error : -0.114679 / 51.0031
time step continuity errors : sum local = 1.05067e-07, global = 5.1942e-08, cumulative = 8.15798e-05
PIMPLE: iteration 2
mpirun: killing job...

